WARNING: physical memory size is smaller than virtual memory size.

*** ChampSim Multicore Out-of-Order Simulator ***
Warmup Instructions: 1000000000
Simulation Instructions: 500000000
Number of CPUs: 1
Page size: 4096

Off-chip DRAM Size: 4 GiB Channels: 1 Width: 64-bit Data Race: 3200 MT/s
Heartbeat CPU 0 instructions: 10000002 cycles: 2516992 heartbeat IPC: 3.973 cumulative IPC: 3.973 (Simulation time: 00 hr 00 min 35 sec)
Heartbeat CPU 0 instructions: 20000001 cycles: 5027832 heartbeat IPC: 3.983 cumulative IPC: 3.978 (Simulation time: 00 hr 01 min 12 sec)
Heartbeat CPU 0 instructions: 30000000 cycles: 7551792 heartbeat IPC: 3.962 cumulative IPC: 3.973 (Simulation time: 00 hr 01 min 47 sec)
Heartbeat CPU 0 instructions: 40000001 cycles: 10076400 heartbeat IPC: 3.961 cumulative IPC: 3.97 (Simulation time: 00 hr 02 min 21 sec)
Heartbeat CPU 0 instructions: 50000000 cycles: 12600257 heartbeat IPC: 3.962 cumulative IPC: 3.968 (Simulation time: 00 hr 02 min 56 sec)
Heartbeat CPU 0 instructions: 60000000 cycles: 15126643 heartbeat IPC: 3.958 cumulative IPC: 3.967 (Simulation time: 00 hr 03 min 31 sec)
Heartbeat CPU 0 instructions: 70000001 cycles: 17653574 heartbeat IPC: 3.957 cumulative IPC: 3.965 (Simulation time: 00 hr 04 min 05 sec)
Heartbeat CPU 0 instructions: 80000001 cycles: 20180056 heartbeat IPC: 3.958 cumulative IPC: 3.964 (Simulation time: 00 hr 04 min 40 sec)
Heartbeat CPU 0 instructions: 90000003 cycles: 22706249 heartbeat IPC: 3.959 cumulative IPC: 3.964 (Simulation time: 00 hr 05 min 15 sec)
Heartbeat CPU 0 instructions: 100000003 cycles: 25231652 heartbeat IPC: 3.96 cumulative IPC: 3.963 (Simulation time: 00 hr 05 min 49 sec)
Heartbeat CPU 0 instructions: 110000003 cycles: 27758342 heartbeat IPC: 3.958 cumulative IPC: 3.963 (Simulation time: 00 hr 06 min 24 sec)
Heartbeat CPU 0 instructions: 120000003 cycles: 30284802 heartbeat IPC: 3.958 cumulative IPC: 3.962 (Simulation time: 00 hr 06 min 59 sec)
Heartbeat CPU 0 instructions: 130000002 cycles: 32812829 heartbeat IPC: 3.956 cumulative IPC: 3.962 (Simulation time: 00 hr 07 min 33 sec)
Heartbeat CPU 0 instructions: 140000000 cycles: 35343091 heartbeat IPC: 3.952 cumulative IPC: 3.961 (Simulation time: 00 hr 08 min 08 sec)
Heartbeat CPU 0 instructions: 150000001 cycles: 37870988 heartbeat IPC: 3.956 cumulative IPC: 3.961 (Simulation time: 00 hr 08 min 42 sec)
Heartbeat CPU 0 instructions: 160000000 cycles: 40400233 heartbeat IPC: 3.954 cumulative IPC: 3.96 (Simulation time: 00 hr 09 min 17 sec)
Heartbeat CPU 0 instructions: 170000003 cycles: 42928312 heartbeat IPC: 3.956 cumulative IPC: 3.96 (Simulation time: 00 hr 09 min 52 sec)
Heartbeat CPU 0 instructions: 180000003 cycles: 45456913 heartbeat IPC: 3.955 cumulative IPC: 3.96 (Simulation time: 00 hr 10 min 26 sec)
Heartbeat CPU 0 instructions: 190000002 cycles: 47985075 heartbeat IPC: 3.955 cumulative IPC: 3.96 (Simulation time: 00 hr 11 min 01 sec)
Heartbeat CPU 0 instructions: 200000001 cycles: 50513327 heartbeat IPC: 3.955 cumulative IPC: 3.959 (Simulation time: 00 hr 11 min 36 sec)
Heartbeat CPU 0 instructions: 210000002 cycles: 53042033 heartbeat IPC: 3.955 cumulative IPC: 3.959 (Simulation time: 00 hr 12 min 10 sec)
Heartbeat CPU 0 instructions: 220000002 cycles: 55569912 heartbeat IPC: 3.956 cumulative IPC: 3.959 (Simulation time: 00 hr 12 min 45 sec)
Heartbeat CPU 0 instructions: 230000000 cycles: 58098575 heartbeat IPC: 3.955 cumulative IPC: 3.959 (Simulation time: 00 hr 13 min 19 sec)
Heartbeat CPU 0 instructions: 240000003 cycles: 60627063 heartbeat IPC: 3.955 cumulative IPC: 3.959 (Simulation time: 00 hr 13 min 54 sec)
Heartbeat CPU 0 instructions: 250000002 cycles: 63155644 heartbeat IPC: 3.955 cumulative IPC: 3.958 (Simulation time: 00 hr 14 min 29 sec)
Heartbeat CPU 0 instructions: 260000003 cycles: 65684448 heartbeat IPC: 3.954 cumulative IPC: 3.958 (Simulation time: 00 hr 15 min 03 sec)
Heartbeat CPU 0 instructions: 270000002 cycles: 68213103 heartbeat IPC: 3.955 cumulative IPC: 3.958 (Simulation time: 00 hr 15 min 38 sec)
Heartbeat CPU 0 instructions: 280000001 cycles: 70741548 heartbeat IPC: 3.955 cumulative IPC: 3.958 (Simulation time: 00 hr 16 min 12 sec)
Heartbeat CPU 0 instructions: 290000001 cycles: 73270217 heartbeat IPC: 3.955 cumulative IPC: 3.958 (Simulation time: 00 hr 16 min 47 sec)
Heartbeat CPU 0 instructions: 300000000 cycles: 75798754 heartbeat IPC: 3.955 cumulative IPC: 3.958 (Simulation time: 00 hr 17 min 22 sec)
Heartbeat CPU 0 instructions: 310000000 cycles: 78327602 heartbeat IPC: 3.954 cumulative IPC: 3.958 (Simulation time: 00 hr 17 min 56 sec)
Heartbeat CPU 0 instructions: 320000002 cycles: 80854303 heartbeat IPC: 3.958 cumulative IPC: 3.958 (Simulation time: 00 hr 18 min 31 sec)
Heartbeat CPU 0 instructions: 330000002 cycles: 83381304 heartbeat IPC: 3.957 cumulative IPC: 3.958 (Simulation time: 00 hr 19 min 06 sec)
Heartbeat CPU 0 instructions: 340000001 cycles: 85907660 heartbeat IPC: 3.958 cumulative IPC: 3.958 (Simulation time: 00 hr 19 min 40 sec)
Heartbeat CPU 0 instructions: 350000000 cycles: 88435015 heartbeat IPC: 3.957 cumulative IPC: 3.958 (Simulation time: 00 hr 20 min 15 sec)
Heartbeat CPU 0 instructions: 360000001 cycles: 90962775 heartbeat IPC: 3.956 cumulative IPC: 3.958 (Simulation time: 00 hr 20 min 49 sec)
Heartbeat CPU 0 instructions: 370000002 cycles: 93490384 heartbeat IPC: 3.956 cumulative IPC: 3.958 (Simulation time: 00 hr 21 min 23 sec)
Heartbeat CPU 0 instructions: 380000000 cycles: 96017682 heartbeat IPC: 3.957 cumulative IPC: 3.958 (Simulation time: 00 hr 21 min 58 sec)
Heartbeat CPU 0 instructions: 390000000 cycles: 98544674 heartbeat IPC: 3.957 cumulative IPC: 3.958 (Simulation time: 00 hr 22 min 33 sec)
Heartbeat CPU 0 instructions: 400000003 cycles: 101070071 heartbeat IPC: 3.96 cumulative IPC: 3.958 (Simulation time: 00 hr 23 min 07 sec)
Heartbeat CPU 0 instructions: 410000002 cycles: 103594003 heartbeat IPC: 3.962 cumulative IPC: 3.958 (Simulation time: 00 hr 23 min 41 sec)
Heartbeat CPU 0 instructions: 420000004 cycles: 106118356 heartbeat IPC: 3.961 cumulative IPC: 3.958 (Simulation time: 00 hr 24 min 16 sec)
Heartbeat CPU 0 instructions: 430000001 cycles: 108641710 heartbeat IPC: 3.963 cumulative IPC: 3.958 (Simulation time: 00 hr 24 min 50 sec)
Heartbeat CPU 0 instructions: 440000003 cycles: 111164055 heartbeat IPC: 3.965 cumulative IPC: 3.958 (Simulation time: 00 hr 25 min 25 sec)
Heartbeat CPU 0 instructions: 450000004 cycles: 113687952 heartbeat IPC: 3.962 cumulative IPC: 3.958 (Simulation time: 00 hr 25 min 59 sec)
Heartbeat CPU 0 instructions: 460000001 cycles: 116212439 heartbeat IPC: 3.961 cumulative IPC: 3.958 (Simulation time: 00 hr 26 min 34 sec)
Heartbeat CPU 0 instructions: 470000003 cycles: 118720500 heartbeat IPC: 3.987 cumulative IPC: 3.959 (Simulation time: 00 hr 27 min 11 sec)
Heartbeat CPU 0 instructions: 480000002 cycles: 121240791 heartbeat IPC: 3.968 cumulative IPC: 3.959 (Simulation time: 00 hr 27 min 46 sec)
Heartbeat CPU 0 instructions: 490000001 cycles: 123768010 heartbeat IPC: 3.957 cumulative IPC: 3.959 (Simulation time: 00 hr 28 min 21 sec)
Heartbeat CPU 0 instructions: 500000003 cycles: 126294131 heartbeat IPC: 3.959 cumulative IPC: 3.959 (Simulation time: 00 hr 28 min 55 sec)
Heartbeat CPU 0 instructions: 510000003 cycles: 128819649 heartbeat IPC: 3.96 cumulative IPC: 3.959 (Simulation time: 00 hr 29 min 30 sec)
Heartbeat CPU 0 instructions: 520000001 cycles: 131344357 heartbeat IPC: 3.961 cumulative IPC: 3.959 (Simulation time: 00 hr 30 min 05 sec)
Heartbeat CPU 0 instructions: 530000001 cycles: 133860632 heartbeat IPC: 3.974 cumulative IPC: 3.959 (Simulation time: 00 hr 30 min 40 sec)
Heartbeat CPU 0 instructions: 540000003 cycles: 136376597 heartbeat IPC: 3.975 cumulative IPC: 3.96 (Simulation time: 00 hr 31 min 15 sec)
Heartbeat CPU 0 instructions: 550000003 cycles: 138893191 heartbeat IPC: 3.974 cumulative IPC: 3.96 (Simulation time: 00 hr 31 min 51 sec)
Heartbeat CPU 0 instructions: 560000003 cycles: 141409134 heartbeat IPC: 3.975 cumulative IPC: 3.96 (Simulation time: 00 hr 32 min 26 sec)
Heartbeat CPU 0 instructions: 570000003 cycles: 143925145 heartbeat IPC: 3.975 cumulative IPC: 3.96 (Simulation time: 00 hr 33 min 02 sec)
Heartbeat CPU 0 instructions: 580000003 cycles: 146441416 heartbeat IPC: 3.974 cumulative IPC: 3.961 (Simulation time: 00 hr 33 min 37 sec)
Heartbeat CPU 0 instructions: 590000001 cycles: 148956879 heartbeat IPC: 3.975 cumulative IPC: 3.961 (Simulation time: 00 hr 34 min 12 sec)
Heartbeat CPU 0 instructions: 600000001 cycles: 151471993 heartbeat IPC: 3.976 cumulative IPC: 3.961 (Simulation time: 00 hr 34 min 48 sec)
Heartbeat CPU 0 instructions: 610000001 cycles: 153986855 heartbeat IPC: 3.976 cumulative IPC: 3.961 (Simulation time: 00 hr 35 min 23 sec)
Heartbeat CPU 0 instructions: 620000001 cycles: 156502045 heartbeat IPC: 3.976 cumulative IPC: 3.962 (Simulation time: 00 hr 35 min 59 sec)
Heartbeat CPU 0 instructions: 630000001 cycles: 159017480 heartbeat IPC: 3.975 cumulative IPC: 3.962 (Simulation time: 00 hr 36 min 34 sec)
Heartbeat CPU 0 instructions: 640000002 cycles: 161532012 heartbeat IPC: 3.977 cumulative IPC: 3.962 (Simulation time: 00 hr 37 min 10 sec)
Heartbeat CPU 0 instructions: 650000003 cycles: 164058159 heartbeat IPC: 3.959 cumulative IPC: 3.962 (Simulation time: 00 hr 37 min 45 sec)
Heartbeat CPU 0 instructions: 660000003 cycles: 166584202 heartbeat IPC: 3.959 cumulative IPC: 3.962 (Simulation time: 00 hr 38 min 20 sec)
Heartbeat CPU 0 instructions: 670000003 cycles: 169106131 heartbeat IPC: 3.965 cumulative IPC: 3.962 (Simulation time: 00 hr 38 min 55 sec)
Heartbeat CPU 0 instructions: 680000003 cycles: 171633848 heartbeat IPC: 3.956 cumulative IPC: 3.962 (Simulation time: 00 hr 39 min 31 sec)
Heartbeat CPU 0 instructions: 690000001 cycles: 174162615 heartbeat IPC: 3.954 cumulative IPC: 3.962 (Simulation time: 00 hr 40 min 05 sec)
Heartbeat CPU 0 instructions: 700000003 cycles: 176691133 heartbeat IPC: 3.955 cumulative IPC: 3.962 (Simulation time: 00 hr 40 min 41 sec)
Heartbeat CPU 0 instructions: 710000000 cycles: 179219528 heartbeat IPC: 3.955 cumulative IPC: 3.962 (Simulation time: 00 hr 41 min 15 sec)
Heartbeat CPU 0 instructions: 720000001 cycles: 181745869 heartbeat IPC: 3.958 cumulative IPC: 3.962 (Simulation time: 00 hr 41 min 51 sec)
Heartbeat CPU 0 instructions: 730000003 cycles: 184251517 heartbeat IPC: 3.991 cumulative IPC: 3.962 (Simulation time: 00 hr 42 min 29 sec)
Heartbeat CPU 0 instructions: 740000000 cycles: 186775747 heartbeat IPC: 3.962 cumulative IPC: 3.962 (Simulation time: 00 hr 43 min 05 sec)
Heartbeat CPU 0 instructions: 750000001 cycles: 189305061 heartbeat IPC: 3.954 cumulative IPC: 3.962 (Simulation time: 00 hr 43 min 40 sec)
Heartbeat CPU 0 instructions: 760000001 cycles: 191833313 heartbeat IPC: 3.955 cumulative IPC: 3.962 (Simulation time: 00 hr 44 min 15 sec)
Heartbeat CPU 0 instructions: 770000000 cycles: 194361994 heartbeat IPC: 3.955 cumulative IPC: 3.962 (Simulation time: 00 hr 44 min 50 sec)
Heartbeat CPU 0 instructions: 780000001 cycles: 196889034 heartbeat IPC: 3.957 cumulative IPC: 3.962 (Simulation time: 00 hr 45 min 25 sec)
Heartbeat CPU 0 instructions: 790000000 cycles: 199415223 heartbeat IPC: 3.959 cumulative IPC: 3.962 (Simulation time: 00 hr 45 min 59 sec)
Heartbeat CPU 0 instructions: 800000003 cycles: 201939887 heartbeat IPC: 3.961 cumulative IPC: 3.962 (Simulation time: 00 hr 46 min 34 sec)
Heartbeat CPU 0 instructions: 810000001 cycles: 204460233 heartbeat IPC: 3.968 cumulative IPC: 3.962 (Simulation time: 00 hr 47 min 08 sec)
Heartbeat CPU 0 instructions: 820000000 cycles: 206980195 heartbeat IPC: 3.968 cumulative IPC: 3.962 (Simulation time: 00 hr 47 min 43 sec)
Heartbeat CPU 0 instructions: 830000001 cycles: 209504158 heartbeat IPC: 3.962 cumulative IPC: 3.962 (Simulation time: 00 hr 48 min 18 sec)
Heartbeat CPU 0 instructions: 840000000 cycles: 212027898 heartbeat IPC: 3.962 cumulative IPC: 3.962 (Simulation time: 00 hr 48 min 54 sec)
Heartbeat CPU 0 instructions: 850000001 cycles: 214551987 heartbeat IPC: 3.962 cumulative IPC: 3.962 (Simulation time: 00 hr 49 min 30 sec)
Heartbeat CPU 0 instructions: 860000000 cycles: 217075418 heartbeat IPC: 3.963 cumulative IPC: 3.962 (Simulation time: 00 hr 50 min 07 sec)
Heartbeat CPU 0 instructions: 870000001 cycles: 219599073 heartbeat IPC: 3.963 cumulative IPC: 3.962 (Simulation time: 00 hr 50 min 42 sec)
Heartbeat CPU 0 instructions: 880000002 cycles: 222122161 heartbeat IPC: 3.963 cumulative IPC: 3.962 (Simulation time: 00 hr 51 min 18 sec)
Heartbeat CPU 0 instructions: 890000001 cycles: 224645707 heartbeat IPC: 3.963 cumulative IPC: 3.962 (Simulation time: 00 hr 51 min 53 sec)
Heartbeat CPU 0 instructions: 900000001 cycles: 227169924 heartbeat IPC: 3.962 cumulative IPC: 3.962 (Simulation time: 00 hr 52 min 28 sec)
Heartbeat CPU 0 instructions: 910000003 cycles: 229693931 heartbeat IPC: 3.962 cumulative IPC: 3.962 (Simulation time: 00 hr 53 min 03 sec)
Heartbeat CPU 0 instructions: 920000003 cycles: 232217842 heartbeat IPC: 3.962 cumulative IPC: 3.962 (Simulation time: 00 hr 53 min 38 sec)
Heartbeat CPU 0 instructions: 930000001 cycles: 234735655 heartbeat IPC: 3.972 cumulative IPC: 3.962 (Simulation time: 00 hr 54 min 14 sec)
Heartbeat CPU 0 instructions: 940000000 cycles: 237259341 heartbeat IPC: 3.962 cumulative IPC: 3.962 (Simulation time: 00 hr 54 min 49 sec)
Heartbeat CPU 0 instructions: 950000000 cycles: 239783277 heartbeat IPC: 3.962 cumulative IPC: 3.962 (Simulation time: 00 hr 55 min 24 sec)
Heartbeat CPU 0 instructions: 960000000 cycles: 242308661 heartbeat IPC: 3.96 cumulative IPC: 3.962 (Simulation time: 00 hr 56 min 00 sec)
Heartbeat CPU 0 instructions: 970000001 cycles: 244837015 heartbeat IPC: 3.955 cumulative IPC: 3.962 (Simulation time: 00 hr 56 min 38 sec)
Heartbeat CPU 0 instructions: 980000002 cycles: 247365062 heartbeat IPC: 3.956 cumulative IPC: 3.962 (Simulation time: 00 hr 57 min 14 sec)
Heartbeat CPU 0 instructions: 990000001 cycles: 249892534 heartbeat IPC: 3.957 cumulative IPC: 3.962 (Simulation time: 00 hr 57 min 49 sec)
Heartbeat CPU 0 instructions: 1000000002 cycles: 252419731 heartbeat IPC: 3.957 cumulative IPC: 3.962 (Simulation time: 00 hr 58 min 25 sec)
Warmup finished CPU 0 instructions: 1000000002 cycles: 252419732 cumulative IPC: 3.962 (Simulation time: 00 hr 58 min 25 sec)
Warmup complete CPU 0 instructions: 1000000002 cycles: 252419732 cumulative IPC: 3.962 (Simulation time: 00 hr 58 min 25 sec)
Heartbeat CPU 0 instructions: 1010000000 cycles: 256836149 heartbeat IPC: 2.264 cumulative IPC: 2.264 (Simulation time: 00 hr 59 min 20 sec)
Heartbeat CPU 0 instructions: 1020000004 cycles: 262012726 heartbeat IPC: 1.932 cumulative IPC: 2.085 (Simulation time: 01 hr 00 min 27 sec)
Heartbeat CPU 0 instructions: 1030000004 cycles: 265757453 heartbeat IPC: 2.67 cumulative IPC: 2.249 (Simulation time: 01 hr 01 min 14 sec)
Heartbeat CPU 0 instructions: 1040000003 cycles: 269502711 heartbeat IPC: 2.67 cumulative IPC: 2.342 (Simulation time: 01 hr 02 min 02 sec)
Heartbeat CPU 0 instructions: 1050000000 cycles: 273245270 heartbeat IPC: 2.672 cumulative IPC: 2.401 (Simulation time: 01 hr 02 min 48 sec)
Heartbeat CPU 0 instructions: 1060000003 cycles: 277101079 heartbeat IPC: 2.593 cumulative IPC: 2.431 (Simulation time: 01 hr 03 min 35 sec)
Heartbeat CPU 0 instructions: 1070000000 cycles: 280915581 heartbeat IPC: 2.622 cumulative IPC: 2.456 (Simulation time: 01 hr 04 min 24 sec)
Heartbeat CPU 0 instructions: 1080000000 cycles: 284654828 heartbeat IPC: 2.674 cumulative IPC: 2.482 (Simulation time: 01 hr 05 min 12 sec)
Heartbeat CPU 0 instructions: 1090000000 cycles: 288325203 heartbeat IPC: 2.725 cumulative IPC: 2.507 (Simulation time: 01 hr 06 min 01 sec)
Heartbeat CPU 0 instructions: 1100000001 cycles: 292054941 heartbeat IPC: 2.681 cumulative IPC: 2.523 (Simulation time: 01 hr 06 min 48 sec)
Heartbeat CPU 0 instructions: 1110000001 cycles: 295859839 heartbeat IPC: 2.628 cumulative IPC: 2.532 (Simulation time: 01 hr 07 min 36 sec)
Heartbeat CPU 0 instructions: 1120000002 cycles: 299672951 heartbeat IPC: 2.623 cumulative IPC: 2.54 (Simulation time: 01 hr 08 min 24 sec)
Heartbeat CPU 0 instructions: 1130000002 cycles: 303351479 heartbeat IPC: 2.718 cumulative IPC: 2.552 (Simulation time: 01 hr 09 min 12 sec)
Heartbeat CPU 0 instructions: 1140000001 cycles: 307139533 heartbeat IPC: 2.64 cumulative IPC: 2.558 (Simulation time: 01 hr 10 min 01 sec)
Heartbeat CPU 0 instructions: 1150000000 cycles: 310944259 heartbeat IPC: 2.628 cumulative IPC: 2.563 (Simulation time: 01 hr 10 min 49 sec)
Heartbeat CPU 0 instructions: 1160000000 cycles: 314694371 heartbeat IPC: 2.667 cumulative IPC: 2.569 (Simulation time: 01 hr 11 min 37 sec)
Heartbeat CPU 0 instructions: 1170000001 cycles: 318484681 heartbeat IPC: 2.638 cumulative IPC: 2.573 (Simulation time: 01 hr 12 min 25 sec)
Heartbeat CPU 0 instructions: 1180000000 cycles: 322230176 heartbeat IPC: 2.67 cumulative IPC: 2.578 (Simulation time: 01 hr 13 min 12 sec)
Heartbeat CPU 0 instructions: 1190000000 cycles: 326018613 heartbeat IPC: 2.64 cumulative IPC: 2.582 (Simulation time: 01 hr 14 min 00 sec)
Heartbeat CPU 0 instructions: 1200000001 cycles: 329753102 heartbeat IPC: 2.678 cumulative IPC: 2.586 (Simulation time: 01 hr 14 min 46 sec)
Heartbeat CPU 0 instructions: 1210000001 cycles: 333527531 heartbeat IPC: 2.649 cumulative IPC: 2.589 (Simulation time: 01 hr 15 min 34 sec)
Heartbeat CPU 0 instructions: 1220000003 cycles: 337320896 heartbeat IPC: 2.636 cumulative IPC: 2.591 (Simulation time: 01 hr 16 min 18 sec)
Heartbeat CPU 0 instructions: 1230000001 cycles: 341066216 heartbeat IPC: 2.67 cumulative IPC: 2.595 (Simulation time: 01 hr 16 min 52 sec)
Heartbeat CPU 0 instructions: 1240000004 cycles: 344861241 heartbeat IPC: 2.635 cumulative IPC: 2.596 (Simulation time: 01 hr 17 min 20 sec)
Heartbeat CPU 0 instructions: 1250000001 cycles: 348530921 heartbeat IPC: 2.725 cumulative IPC: 2.601 (Simulation time: 01 hr 17 min 53 sec)
Heartbeat CPU 0 instructions: 1260000001 cycles: 352323881 heartbeat IPC: 2.636 cumulative IPC: 2.602 (Simulation time: 01 hr 18 min 20 sec)
Heartbeat CPU 0 instructions: 1270000002 cycles: 356118241 heartbeat IPC: 2.635 cumulative IPC: 2.604 (Simulation time: 01 hr 18 min 57 sec)
Heartbeat CPU 0 instructions: 1280000000 cycles: 359807382 heartbeat IPC: 2.711 cumulative IPC: 2.607 (Simulation time: 01 hr 19 min 25 sec)
Heartbeat CPU 0 instructions: 1290000002 cycles: 363598360 heartbeat IPC: 2.638 cumulative IPC: 2.608 (Simulation time: 01 hr 19 min 55 sec)
Heartbeat CPU 0 instructions: 1300000004 cycles: 367318671 heartbeat IPC: 2.688 cumulative IPC: 2.611 (Simulation time: 01 hr 20 min 24 sec)
Heartbeat CPU 0 instructions: 1310000003 cycles: 371147883 heartbeat IPC: 2.612 cumulative IPC: 2.611 (Simulation time: 01 hr 20 min 56 sec)
Heartbeat CPU 0 instructions: 1320000003 cycles: 375005329 heartbeat IPC: 2.592 cumulative IPC: 2.61 (Simulation time: 01 hr 21 min 23 sec)
Heartbeat CPU 0 instructions: 1330000003 cycles: 378767846 heartbeat IPC: 2.658 cumulative IPC: 2.612 (Simulation time: 01 hr 21 min 59 sec)
Heartbeat CPU 0 instructions: 1340000004 cycles: 382512263 heartbeat IPC: 2.671 cumulative IPC: 2.614 (Simulation time: 01 hr 22 min 27 sec)
Heartbeat CPU 0 instructions: 1350000002 cycles: 386269867 heartbeat IPC: 2.661 cumulative IPC: 2.615 (Simulation time: 01 hr 23 min 00 sec)
Heartbeat CPU 0 instructions: 1360000004 cycles: 390933205 heartbeat IPC: 2.144 cumulative IPC: 2.599 (Simulation time: 01 hr 23 min 42 sec)
Heartbeat CPU 0 instructions: 1370000004 cycles: 395793941 heartbeat IPC: 2.057 cumulative IPC: 2.581 (Simulation time: 01 hr 24 min 26 sec)
Heartbeat CPU 0 instructions: 1380000000 cycles: 399586905 heartbeat IPC: 2.636 cumulative IPC: 2.582 (Simulation time: 01 hr 24 min 53 sec)
Heartbeat CPU 0 instructions: 1390000002 cycles: 403379915 heartbeat IPC: 2.636 cumulative IPC: 2.583 (Simulation time: 01 hr 25 min 19 sec)
Heartbeat CPU 0 instructions: 1400000004 cycles: 407163002 heartbeat IPC: 2.643 cumulative IPC: 2.585 (Simulation time: 01 hr 25 min 48 sec)
Heartbeat CPU 0 instructions: 1410000001 cycles: 410978316 heartbeat IPC: 2.621 cumulative IPC: 2.586 (Simulation time: 01 hr 26 min 28 sec)
Heartbeat CPU 0 instructions: 1420000002 cycles: 414786709 heartbeat IPC: 2.626 cumulative IPC: 2.587 (Simulation time: 01 hr 26 min 58 sec)
Heartbeat CPU 0 instructions: 1430000002 cycles: 418596970 heartbeat IPC: 2.624 cumulative IPC: 2.588 (Simulation time: 01 hr 27 min 23 sec)
Heartbeat CPU 0 instructions: 1440000000 cycles: 422393382 heartbeat IPC: 2.634 cumulative IPC: 2.589 (Simulation time: 01 hr 27 min 48 sec)
Heartbeat CPU 0 instructions: 1450000002 cycles: 426139103 heartbeat IPC: 2.67 cumulative IPC: 2.59 (Simulation time: 01 hr 28 min 13 sec)
Heartbeat CPU 0 instructions: 1460000003 cycles: 429840907 heartbeat IPC: 2.701 cumulative IPC: 2.593 (Simulation time: 01 hr 28 min 37 sec)
Heartbeat CPU 0 instructions: 1470000000 cycles: 433567950 heartbeat IPC: 2.683 cumulative IPC: 2.595 (Simulation time: 01 hr 29 min 02 sec)
Heartbeat CPU 0 instructions: 1480000000 cycles: 437220855 heartbeat IPC: 2.738 cumulative IPC: 2.597 (Simulation time: 01 hr 29 min 28 sec)
Heartbeat CPU 0 instructions: 1490000000 cycles: 441025895 heartbeat IPC: 2.628 cumulative IPC: 2.598 (Simulation time: 01 hr 29 min 53 sec)
Heartbeat CPU 0 instructions: 1500000000 cycles: 444750374 heartbeat IPC: 2.685 cumulative IPC: 2.6 (Simulation time: 01 hr 30 min 18 sec)
Simulation finished CPU 0 instructions: 500000003 cycles: 192330644 cumulative IPC: 2.6 (Simulation time: 01 hr 30 min 18 sec)
Simulation complete CPU 0 instructions: 500000003 cycles: 192330644 cumulative IPC: 2.6 (Simulation time: 01 hr 30 min 18 sec)

ChampSim completed all CPUs

=== Simulation ===
CPU 0 runs traces/603.bwaves_s-1080B.champsimtrace.xz
Region of Interest Statistics

CPU 0 cumulative IPC: 2.6 instructions: 500000003 cycles: 192330644
CPU 0 Branch Prediction Accuracy: 93.22% MPKI: 9.839 Average ROB Occupancy at Mispredict: 39.44
Branch type MPKI
BRANCH_DIRECT_JUMP: 0.186
BRANCH_INDIRECT: 0
BRANCH_CONDITIONAL: 9.52
BRANCH_DIRECT_CALL: 0
BRANCH_INDIRECT_CALL: 0
BRANCH_RETURN: 0.131

LLC TOTAL        ACCESS:     328094 HIT:     156046 MISS:     172048
LLC LOAD         ACCESS:      15729 HIT:         12 MISS:      15717
LLC RFO          ACCESS:     156307 HIT:         15 MISS:     156292
LLC PREFETCH     ACCESS:          0 HIT:          0 MISS:          0
LLC WRITE        ACCESS:     156037 HIT:     156016 MISS:         21
LLC TRANSLATION  ACCESS:         21 HIT:          3 MISS:         18
LLC PREFETCH REQUESTED:          0 ISSUED:          0 USEFUL:          0 USELESS:          0
LLC AVERAGE MISS LATENCY: 408.2 cycles
cpu0_DTLB TOTAL        ACCESS:   81052073 HIT:   81028044 MISS:      24029
cpu0_DTLB LOAD         ACCESS:   81052073 HIT:   81028044 MISS:      24029
cpu0_DTLB RFO          ACCESS:          0 HIT:          0 MISS:          0
cpu0_DTLB PREFETCH     ACCESS:          0 HIT:          0 MISS:          0
cpu0_DTLB WRITE        ACCESS:          0 HIT:          0 MISS:          0
cpu0_DTLB TRANSLATION  ACCESS:          0 HIT:          0 MISS:          0
cpu0_DTLB PREFETCH REQUESTED:          0 ISSUED:          0 USEFUL:          0 USELESS:          0
cpu0_DTLB AVERAGE MISS LATENCY: 19.59 cycles
cpu0_ITLB TOTAL        ACCESS:    1895546 HIT:    1895546 MISS:          0
cpu0_ITLB LOAD         ACCESS:    1895546 HIT:    1895546 MISS:          0
cpu0_ITLB RFO          ACCESS:          0 HIT:          0 MISS:          0
cpu0_ITLB PREFETCH     ACCESS:          0 HIT:          0 MISS:          0
cpu0_ITLB WRITE        ACCESS:          0 HIT:          0 MISS:          0
cpu0_ITLB TRANSLATION  ACCESS:          0 HIT:          0 MISS:          0
cpu0_ITLB PREFETCH REQUESTED:          0 ISSUED:          0 USEFUL:          0 USELESS:          0
cpu0_ITLB AVERAGE MISS LATENCY: -nan cycles
cpu0_L1D TOTAL        ACCESS:  125634491 HIT:  124442309 MISS:    1192182
cpu0_L1D LOAD         ACCESS:  104517178 HIT:  104473725 MISS:      43453
cpu0_L1D RFO          ACCESS:          0 HIT:          0 MISS:          0
cpu0_L1D PREFETCH     ACCESS:          0 HIT:          0 MISS:          0
cpu0_L1D WRITE        ACCESS:   21114617 HIT:   19966153 MISS:    1148464
cpu0_L1D TRANSLATION  ACCESS:       2696 HIT:       2431 MISS:        265
cpu0_L1D PREFETCH REQUESTED:          0 ISSUED:          0 USEFUL:          0 USELESS:          0
cpu0_L1D AVERAGE MISS LATENCY: 59.17 cycles
cpu0_L1I TOTAL        ACCESS:    2195737 HIT:    2195737 MISS:          0
cpu0_L1I LOAD         ACCESS:    2195737 HIT:    2195737 MISS:          0
cpu0_L1I RFO          ACCESS:          0 HIT:          0 MISS:          0
cpu0_L1I PREFETCH     ACCESS:          0 HIT:          0 MISS:          0
cpu0_L1I WRITE        ACCESS:          0 HIT:          0 MISS:          0
cpu0_L1I TRANSLATION  ACCESS:          0 HIT:          0 MISS:          0
cpu0_L1I PREFETCH REQUESTED:          0 ISSUED:          0 USEFUL:          0 USELESS:          0
cpu0_L1I AVERAGE MISS LATENCY: -nan cycles
cpu0_L2C TOTAL        ACCESS:     331680 HIT:     159606 MISS:     172074
cpu0_L2C LOAD         ACCESS:      16948 HIT:       1219 MISS:      15729
cpu0_L2C RFO          ACCESS:     157515 HIT:       1208 MISS:     156307
cpu0_L2C PREFETCH     ACCESS:          0 HIT:          0 MISS:          0
cpu0_L2C WRITE        ACCESS:     156952 HIT:     156935 MISS:         17
cpu0_L2C TRANSLATION  ACCESS:        265 HIT:        244 MISS:         21
cpu0_L2C PREFETCH REQUESTED:          0 ISSUED:          0 USEFUL:          0 USELESS:          0
cpu0_L2C AVERAGE MISS LATENCY: 429.1 cycles
cpu0_STLB TOTAL        ACCESS:       2815 HIT:        124 MISS:       2691
cpu0_STLB LOAD         ACCESS:       2815 HIT:        124 MISS:       2691
cpu0_STLB RFO          ACCESS:          0 HIT:          0 MISS:          0
cpu0_STLB PREFETCH     ACCESS:          0 HIT:          0 MISS:          0
cpu0_STLB WRITE        ACCESS:          0 HIT:          0 MISS:          0
cpu0_STLB TRANSLATION  ACCESS:          0 HIT:          0 MISS:          0
cpu0_STLB PREFETCH REQUESTED:          0 ISSUED:          0 USEFUL:          0 USELESS:          0
cpu0_STLB AVERAGE MISS LATENCY: 209.8 cycles

DRAM Statistics

Channel 0 RQ ROW_BUFFER_HIT:      59753
  ROW_BUFFER_MISS:     112274
 AVG DBUS CONGESTED CYCLE: 3.932
WQ ROW_BUFFER_HIT: Channel 0 
  ROW_BUFFER_MISS:      53647
  FULL:     102428
