WARNING: physical memory size is smaller than virtual memory size.

*** ChampSim Multicore Out-of-Order Simulator ***
Warmup Instructions: 1000000000
Simulation Instructions: 500000000
Number of CPUs: 1
Page size: 4096

Off-chip DRAM Size: 4 GiB Channels: 1 Width: 64-bit Data Race: 3200 MT/s
Heartbeat CPU 0 instructions: 10000002 cycles: 2512867 heartbeat IPC: 3.98 cumulative IPC: 3.98 (Simulation time: 00 hr 00 min 35 sec)
Heartbeat CPU 0 instructions: 20000001 cycles: 5021326 heartbeat IPC: 3.987 cumulative IPC: 3.983 (Simulation time: 00 hr 01 min 12 sec)
Heartbeat CPU 0 instructions: 30000000 cycles: 7541945 heartbeat IPC: 3.967 cumulative IPC: 3.978 (Simulation time: 00 hr 01 min 48 sec)
Heartbeat CPU 0 instructions: 40000001 cycles: 10062725 heartbeat IPC: 3.967 cumulative IPC: 3.975 (Simulation time: 00 hr 02 min 23 sec)
Heartbeat CPU 0 instructions: 50000000 cycles: 12582969 heartbeat IPC: 3.968 cumulative IPC: 3.974 (Simulation time: 00 hr 02 min 58 sec)
Heartbeat CPU 0 instructions: 60000001 cycles: 15106551 heartbeat IPC: 3.963 cumulative IPC: 3.972 (Simulation time: 00 hr 03 min 33 sec)
Heartbeat CPU 0 instructions: 70000001 cycles: 17628116 heartbeat IPC: 3.966 cumulative IPC: 3.971 (Simulation time: 00 hr 04 min 08 sec)
Heartbeat CPU 0 instructions: 80000002 cycles: 20148109 heartbeat IPC: 3.968 cumulative IPC: 3.971 (Simulation time: 00 hr 04 min 44 sec)
Heartbeat CPU 0 instructions: 90000003 cycles: 22668536 heartbeat IPC: 3.968 cumulative IPC: 3.97 (Simulation time: 00 hr 05 min 19 sec)
Heartbeat CPU 0 instructions: 100000003 cycles: 25190045 heartbeat IPC: 3.966 cumulative IPC: 3.97 (Simulation time: 00 hr 05 min 55 sec)
Heartbeat CPU 0 instructions: 110000003 cycles: 27714014 heartbeat IPC: 3.962 cumulative IPC: 3.969 (Simulation time: 00 hr 06 min 30 sec)
Heartbeat CPU 0 instructions: 120000003 cycles: 30237162 heartbeat IPC: 3.963 cumulative IPC: 3.969 (Simulation time: 00 hr 07 min 04 sec)
Heartbeat CPU 0 instructions: 130000002 cycles: 32759604 heartbeat IPC: 3.964 cumulative IPC: 3.968 (Simulation time: 00 hr 07 min 38 sec)
Heartbeat CPU 0 instructions: 140000000 cycles: 35281124 heartbeat IPC: 3.966 cumulative IPC: 3.968 (Simulation time: 00 hr 08 min 13 sec)
Heartbeat CPU 0 instructions: 150000001 cycles: 37803659 heartbeat IPC: 3.964 cumulative IPC: 3.968 (Simulation time: 00 hr 08 min 47 sec)
Heartbeat CPU 0 instructions: 160000001 cycles: 40326488 heartbeat IPC: 3.964 cumulative IPC: 3.968 (Simulation time: 00 hr 09 min 22 sec)
Heartbeat CPU 0 instructions: 170000003 cycles: 42849084 heartbeat IPC: 3.964 cumulative IPC: 3.967 (Simulation time: 00 hr 09 min 57 sec)
Heartbeat CPU 0 instructions: 180000003 cycles: 45370357 heartbeat IPC: 3.966 cumulative IPC: 3.967 (Simulation time: 00 hr 10 min 32 sec)
Heartbeat CPU 0 instructions: 190000002 cycles: 47894598 heartbeat IPC: 3.962 cumulative IPC: 3.967 (Simulation time: 00 hr 11 min 06 sec)
Heartbeat CPU 0 instructions: 200000002 cycles: 50415975 heartbeat IPC: 3.966 cumulative IPC: 3.967 (Simulation time: 00 hr 11 min 41 sec)
Heartbeat CPU 0 instructions: 210000003 cycles: 52939387 heartbeat IPC: 3.963 cumulative IPC: 3.967 (Simulation time: 00 hr 12 min 15 sec)
Heartbeat CPU 0 instructions: 220000003 cycles: 55462146 heartbeat IPC: 3.964 cumulative IPC: 3.967 (Simulation time: 00 hr 12 min 50 sec)
Heartbeat CPU 0 instructions: 230000000 cycles: 57985669 heartbeat IPC: 3.963 cumulative IPC: 3.966 (Simulation time: 00 hr 13 min 24 sec)
Heartbeat CPU 0 instructions: 240000000 cycles: 60509506 heartbeat IPC: 3.962 cumulative IPC: 3.966 (Simulation time: 00 hr 13 min 59 sec)
Heartbeat CPU 0 instructions: 250000002 cycles: 63032422 heartbeat IPC: 3.964 cumulative IPC: 3.966 (Simulation time: 00 hr 14 min 33 sec)
Heartbeat CPU 0 instructions: 260000000 cycles: 65556620 heartbeat IPC: 3.962 cumulative IPC: 3.966 (Simulation time: 00 hr 15 min 08 sec)
Heartbeat CPU 0 instructions: 270000002 cycles: 68080215 heartbeat IPC: 3.963 cumulative IPC: 3.966 (Simulation time: 00 hr 15 min 43 sec)
Heartbeat CPU 0 instructions: 280000001 cycles: 70602606 heartbeat IPC: 3.964 cumulative IPC: 3.966 (Simulation time: 00 hr 16 min 18 sec)
Heartbeat CPU 0 instructions: 290000001 cycles: 73124915 heartbeat IPC: 3.965 cumulative IPC: 3.966 (Simulation time: 00 hr 16 min 53 sec)
Heartbeat CPU 0 instructions: 300000000 cycles: 75648216 heartbeat IPC: 3.963 cumulative IPC: 3.966 (Simulation time: 00 hr 17 min 28 sec)
Heartbeat CPU 0 instructions: 310000000 cycles: 78171844 heartbeat IPC: 3.963 cumulative IPC: 3.966 (Simulation time: 00 hr 18 min 03 sec)
Heartbeat CPU 0 instructions: 320000003 cycles: 80695053 heartbeat IPC: 3.963 cumulative IPC: 3.966 (Simulation time: 00 hr 18 min 38 sec)
Heartbeat CPU 0 instructions: 330000001 cycles: 83219278 heartbeat IPC: 3.962 cumulative IPC: 3.965 (Simulation time: 00 hr 19 min 13 sec)
Heartbeat CPU 0 instructions: 340000001 cycles: 85741963 heartbeat IPC: 3.964 cumulative IPC: 3.965 (Simulation time: 00 hr 19 min 48 sec)
Heartbeat CPU 0 instructions: 350000000 cycles: 88262658 heartbeat IPC: 3.967 cumulative IPC: 3.965 (Simulation time: 00 hr 20 min 22 sec)
Heartbeat CPU 0 instructions: 360000001 cycles: 90783597 heartbeat IPC: 3.967 cumulative IPC: 3.965 (Simulation time: 00 hr 20 min 57 sec)
Heartbeat CPU 0 instructions: 370000003 cycles: 93304133 heartbeat IPC: 3.967 cumulative IPC: 3.966 (Simulation time: 00 hr 21 min 32 sec)
Heartbeat CPU 0 instructions: 380000000 cycles: 95824686 heartbeat IPC: 3.967 cumulative IPC: 3.966 (Simulation time: 00 hr 22 min 06 sec)
Heartbeat CPU 0 instructions: 390000000 cycles: 98344577 heartbeat IPC: 3.968 cumulative IPC: 3.966 (Simulation time: 00 hr 22 min 41 sec)
Heartbeat CPU 0 instructions: 400000003 cycles: 100866516 heartbeat IPC: 3.965 cumulative IPC: 3.966 (Simulation time: 00 hr 23 min 16 sec)
Heartbeat CPU 0 instructions: 410000002 cycles: 103388027 heartbeat IPC: 3.966 cumulative IPC: 3.966 (Simulation time: 00 hr 23 min 50 sec)
Heartbeat CPU 0 instructions: 420000004 cycles: 105909427 heartbeat IPC: 3.966 cumulative IPC: 3.966 (Simulation time: 00 hr 24 min 25 sec)
Heartbeat CPU 0 instructions: 430000001 cycles: 108428878 heartbeat IPC: 3.969 cumulative IPC: 3.966 (Simulation time: 00 hr 25 min 00 sec)
Heartbeat CPU 0 instructions: 440000003 cycles: 110951260 heartbeat IPC: 3.965 cumulative IPC: 3.966 (Simulation time: 00 hr 25 min 34 sec)
Heartbeat CPU 0 instructions: 450000002 cycles: 113472456 heartbeat IPC: 3.966 cumulative IPC: 3.966 (Simulation time: 00 hr 26 min 09 sec)
Heartbeat CPU 0 instructions: 460000002 cycles: 115990351 heartbeat IPC: 3.972 cumulative IPC: 3.966 (Simulation time: 00 hr 26 min 44 sec)
Heartbeat CPU 0 instructions: 470000000 cycles: 118496212 heartbeat IPC: 3.991 cumulative IPC: 3.966 (Simulation time: 00 hr 27 min 21 sec)
Heartbeat CPU 0 instructions: 480000002 cycles: 121011783 heartbeat IPC: 3.975 cumulative IPC: 3.967 (Simulation time: 00 hr 27 min 56 sec)
Heartbeat CPU 0 instructions: 490000002 cycles: 123533621 heartbeat IPC: 3.965 cumulative IPC: 3.967 (Simulation time: 00 hr 28 min 31 sec)
Heartbeat CPU 0 instructions: 500000003 cycles: 126053970 heartbeat IPC: 3.968 cumulative IPC: 3.967 (Simulation time: 00 hr 29 min 05 sec)
Heartbeat CPU 0 instructions: 510000003 cycles: 128574262 heartbeat IPC: 3.968 cumulative IPC: 3.967 (Simulation time: 00 hr 29 min 40 sec)
Heartbeat CPU 0 instructions: 520000001 cycles: 131096007 heartbeat IPC: 3.966 cumulative IPC: 3.967 (Simulation time: 00 hr 30 min 15 sec)
Heartbeat CPU 0 instructions: 530000002 cycles: 133608896 heartbeat IPC: 3.979 cumulative IPC: 3.967 (Simulation time: 00 hr 30 min 50 sec)
Heartbeat CPU 0 instructions: 540000003 cycles: 136121732 heartbeat IPC: 3.98 cumulative IPC: 3.967 (Simulation time: 00 hr 31 min 26 sec)
Heartbeat CPU 0 instructions: 550000003 cycles: 138634344 heartbeat IPC: 3.98 cumulative IPC: 3.967 (Simulation time: 00 hr 32 min 01 sec)
Heartbeat CPU 0 instructions: 560000003 cycles: 141145911 heartbeat IPC: 3.982 cumulative IPC: 3.968 (Simulation time: 00 hr 32 min 36 sec)
Heartbeat CPU 0 instructions: 570000003 cycles: 143657737 heartbeat IPC: 3.981 cumulative IPC: 3.968 (Simulation time: 00 hr 33 min 12 sec)
Heartbeat CPU 0 instructions: 580000003 cycles: 146169421 heartbeat IPC: 3.981 cumulative IPC: 3.968 (Simulation time: 00 hr 33 min 47 sec)
Heartbeat CPU 0 instructions: 590000001 cycles: 148680098 heartbeat IPC: 3.983 cumulative IPC: 3.968 (Simulation time: 00 hr 34 min 23 sec)
Heartbeat CPU 0 instructions: 600000001 cycles: 151191094 heartbeat IPC: 3.982 cumulative IPC: 3.968 (Simulation time: 00 hr 34 min 58 sec)
Heartbeat CPU 0 instructions: 610000001 cycles: 153702903 heartbeat IPC: 3.981 cumulative IPC: 3.969 (Simulation time: 00 hr 35 min 33 sec)
Heartbeat CPU 0 instructions: 620000001 cycles: 156214261 heartbeat IPC: 3.982 cumulative IPC: 3.969 (Simulation time: 00 hr 36 min 09 sec)
Heartbeat CPU 0 instructions: 630000001 cycles: 158726138 heartbeat IPC: 3.981 cumulative IPC: 3.969 (Simulation time: 00 hr 36 min 44 sec)
Heartbeat CPU 0 instructions: 640000003 cycles: 161238350 heartbeat IPC: 3.981 cumulative IPC: 3.969 (Simulation time: 00 hr 37 min 20 sec)
Heartbeat CPU 0 instructions: 650000003 cycles: 163756300 heartbeat IPC: 3.971 cumulative IPC: 3.969 (Simulation time: 00 hr 37 min 54 sec)
Heartbeat CPU 0 instructions: 660000000 cycles: 166276452 heartbeat IPC: 3.968 cumulative IPC: 3.969 (Simulation time: 00 hr 38 min 29 sec)
Heartbeat CPU 0 instructions: 670000003 cycles: 168794146 heartbeat IPC: 3.972 cumulative IPC: 3.969 (Simulation time: 00 hr 39 min 04 sec)
Heartbeat CPU 0 instructions: 680000003 cycles: 171315558 heartbeat IPC: 3.966 cumulative IPC: 3.969 (Simulation time: 00 hr 39 min 39 sec)
Heartbeat CPU 0 instructions: 690000001 cycles: 173835889 heartbeat IPC: 3.968 cumulative IPC: 3.969 (Simulation time: 00 hr 40 min 13 sec)
Heartbeat CPU 0 instructions: 700000003 cycles: 176356299 heartbeat IPC: 3.968 cumulative IPC: 3.969 (Simulation time: 00 hr 40 min 47 sec)
Heartbeat CPU 0 instructions: 710000000 cycles: 178877673 heartbeat IPC: 3.966 cumulative IPC: 3.969 (Simulation time: 00 hr 41 min 22 sec)
Heartbeat CPU 0 instructions: 720000001 cycles: 181398497 heartbeat IPC: 3.967 cumulative IPC: 3.969 (Simulation time: 00 hr 41 min 57 sec)
Heartbeat CPU 0 instructions: 730000003 cycles: 183902558 heartbeat IPC: 3.994 cumulative IPC: 3.969 (Simulation time: 00 hr 42 min 34 sec)
Heartbeat CPU 0 instructions: 740000000 cycles: 186423069 heartbeat IPC: 3.967 cumulative IPC: 3.969 (Simulation time: 00 hr 43 min 09 sec)
Heartbeat CPU 0 instructions: 750000001 cycles: 188945384 heartbeat IPC: 3.965 cumulative IPC: 3.969 (Simulation time: 00 hr 43 min 44 sec)
Heartbeat CPU 0 instructions: 760000001 cycles: 191467537 heartbeat IPC: 3.965 cumulative IPC: 3.969 (Simulation time: 00 hr 44 min 18 sec)
Heartbeat CPU 0 instructions: 770000000 cycles: 193990492 heartbeat IPC: 3.964 cumulative IPC: 3.969 (Simulation time: 00 hr 44 min 53 sec)
Heartbeat CPU 0 instructions: 780000001 cycles: 196511653 heartbeat IPC: 3.966 cumulative IPC: 3.969 (Simulation time: 00 hr 45 min 27 sec)
Heartbeat CPU 0 instructions: 790000000 cycles: 199032548 heartbeat IPC: 3.967 cumulative IPC: 3.969 (Simulation time: 00 hr 46 min 02 sec)
Heartbeat CPU 0 instructions: 800000003 cycles: 201552679 heartbeat IPC: 3.968 cumulative IPC: 3.969 (Simulation time: 00 hr 46 min 37 sec)
Heartbeat CPU 0 instructions: 810000001 cycles: 204069653 heartbeat IPC: 3.973 cumulative IPC: 3.969 (Simulation time: 00 hr 47 min 12 sec)
Heartbeat CPU 0 instructions: 820000000 cycles: 206586056 heartbeat IPC: 3.974 cumulative IPC: 3.969 (Simulation time: 00 hr 47 min 47 sec)
Heartbeat CPU 0 instructions: 830000002 cycles: 209105065 heartbeat IPC: 3.97 cumulative IPC: 3.969 (Simulation time: 00 hr 48 min 21 sec)
Heartbeat CPU 0 instructions: 840000000 cycles: 211624681 heartbeat IPC: 3.969 cumulative IPC: 3.969 (Simulation time: 00 hr 48 min 56 sec)
Heartbeat CPU 0 instructions: 850000001 cycles: 214144848 heartbeat IPC: 3.968 cumulative IPC: 3.969 (Simulation time: 00 hr 49 min 31 sec)
Heartbeat CPU 0 instructions: 860000000 cycles: 216666197 heartbeat IPC: 3.966 cumulative IPC: 3.969 (Simulation time: 00 hr 50 min 06 sec)
Heartbeat CPU 0 instructions: 870000001 cycles: 219185617 heartbeat IPC: 3.969 cumulative IPC: 3.969 (Simulation time: 00 hr 50 min 41 sec)
Heartbeat CPU 0 instructions: 880000002 cycles: 221704935 heartbeat IPC: 3.969 cumulative IPC: 3.969 (Simulation time: 00 hr 51 min 17 sec)
Heartbeat CPU 0 instructions: 890000001 cycles: 224224293 heartbeat IPC: 3.969 cumulative IPC: 3.969 (Simulation time: 00 hr 51 min 52 sec)
Heartbeat CPU 0 instructions: 900000001 cycles: 226743937 heartbeat IPC: 3.969 cumulative IPC: 3.969 (Simulation time: 00 hr 52 min 26 sec)
Heartbeat CPU 0 instructions: 910000003 cycles: 229263801 heartbeat IPC: 3.968 cumulative IPC: 3.969 (Simulation time: 00 hr 53 min 01 sec)
Heartbeat CPU 0 instructions: 920000003 cycles: 231783787 heartbeat IPC: 3.968 cumulative IPC: 3.969 (Simulation time: 00 hr 53 min 36 sec)
Heartbeat CPU 0 instructions: 930000001 cycles: 234299702 heartbeat IPC: 3.975 cumulative IPC: 3.969 (Simulation time: 00 hr 54 min 12 sec)
Heartbeat CPU 0 instructions: 940000002 cycles: 236819243 heartbeat IPC: 3.969 cumulative IPC: 3.969 (Simulation time: 00 hr 54 min 46 sec)
Heartbeat CPU 0 instructions: 950000000 cycles: 239337600 heartbeat IPC: 3.971 cumulative IPC: 3.969 (Simulation time: 00 hr 55 min 21 sec)
Heartbeat CPU 0 instructions: 960000000 cycles: 241857172 heartbeat IPC: 3.969 cumulative IPC: 3.969 (Simulation time: 00 hr 55 min 56 sec)
Heartbeat CPU 0 instructions: 970000001 cycles: 244378712 heartbeat IPC: 3.966 cumulative IPC: 3.969 (Simulation time: 00 hr 56 min 31 sec)
Heartbeat CPU 0 instructions: 980000002 cycles: 246900089 heartbeat IPC: 3.966 cumulative IPC: 3.969 (Simulation time: 00 hr 57 min 05 sec)
Heartbeat CPU 0 instructions: 990000001 cycles: 249420913 heartbeat IPC: 3.967 cumulative IPC: 3.969 (Simulation time: 00 hr 57 min 39 sec)
Heartbeat CPU 0 instructions: 1000000002 cycles: 251942189 heartbeat IPC: 3.966 cumulative IPC: 3.969 (Simulation time: 00 hr 58 min 14 sec)
Warmup finished CPU 0 instructions: 1000000002 cycles: 251942190 cumulative IPC: 3.969 (Simulation time: 00 hr 58 min 14 sec)
Warmup complete CPU 0 instructions: 1000000002 cycles: 251942190 cumulative IPC: 3.969 (Simulation time: 00 hr 58 min 14 sec)
Heartbeat CPU 0 instructions: 1010000000 cycles: 256605112 heartbeat IPC: 2.145 cumulative IPC: 2.145 (Simulation time: 00 hr 59 min 10 sec)
Heartbeat CPU 0 instructions: 1020000004 cycles: 261911493 heartbeat IPC: 1.885 cumulative IPC: 2.006 (Simulation time: 01 hr 00 min 15 sec)
Heartbeat CPU 0 instructions: 1030000004 cycles: 265961300 heartbeat IPC: 2.469 cumulative IPC: 2.14 (Simulation time: 01 hr 01 min 03 sec)
Heartbeat CPU 0 instructions: 1040000003 cycles: 270007482 heartbeat IPC: 2.471 cumulative IPC: 2.214 (Simulation time: 01 hr 01 min 51 sec)
Heartbeat CPU 0 instructions: 1050000000 cycles: 274066231 heartbeat IPC: 2.464 cumulative IPC: 2.26 (Simulation time: 01 hr 02 min 39 sec)
Heartbeat CPU 0 instructions: 1060000003 cycles: 278210457 heartbeat IPC: 2.413 cumulative IPC: 2.284 (Simulation time: 01 hr 03 min 28 sec)
Heartbeat CPU 0 instructions: 1070000000 cycles: 282372697 heartbeat IPC: 2.403 cumulative IPC: 2.3 (Simulation time: 01 hr 04 min 17 sec)
Heartbeat CPU 0 instructions: 1080000000 cycles: 286514985 heartbeat IPC: 2.414 cumulative IPC: 2.314 (Simulation time: 01 hr 05 min 06 sec)
Heartbeat CPU 0 instructions: 1090000000 cycles: 290710144 heartbeat IPC: 2.384 cumulative IPC: 2.322 (Simulation time: 01 hr 05 min 56 sec)
Heartbeat CPU 0 instructions: 1100000001 cycles: 294877157 heartbeat IPC: 2.4 cumulative IPC: 2.329 (Simulation time: 01 hr 06 min 46 sec)
Heartbeat CPU 0 instructions: 1110000003 cycles: 299053793 heartbeat IPC: 2.394 cumulative IPC: 2.335 (Simulation time: 01 hr 07 min 35 sec)
Heartbeat CPU 0 instructions: 1120000002 cycles: 303229667 heartbeat IPC: 2.395 cumulative IPC: 2.34 (Simulation time: 01 hr 08 min 24 sec)
Heartbeat CPU 0 instructions: 1130000002 cycles: 307406214 heartbeat IPC: 2.394 cumulative IPC: 2.344 (Simulation time: 01 hr 09 min 14 sec)
Heartbeat CPU 0 instructions: 1140000001 cycles: 311571114 heartbeat IPC: 2.401 cumulative IPC: 2.348 (Simulation time: 01 hr 10 min 03 sec)
Heartbeat CPU 0 instructions: 1150000000 cycles: 315761184 heartbeat IPC: 2.387 cumulative IPC: 2.35 (Simulation time: 01 hr 10 min 52 sec)
Heartbeat CPU 0 instructions: 1160000000 cycles: 319947306 heartbeat IPC: 2.389 cumulative IPC: 2.353 (Simulation time: 01 hr 11 min 41 sec)
Heartbeat CPU 0 instructions: 1170000001 cycles: 324126637 heartbeat IPC: 2.393 cumulative IPC: 2.355 (Simulation time: 01 hr 12 min 30 sec)
Heartbeat CPU 0 instructions: 1180000000 cycles: 328285358 heartbeat IPC: 2.405 cumulative IPC: 2.358 (Simulation time: 01 hr 13 min 19 sec)
Heartbeat CPU 0 instructions: 1190000000 cycles: 332485245 heartbeat IPC: 2.381 cumulative IPC: 2.359 (Simulation time: 01 hr 14 min 08 sec)
Heartbeat CPU 0 instructions: 1200000001 cycles: 336677613 heartbeat IPC: 2.385 cumulative IPC: 2.36 (Simulation time: 01 hr 14 min 57 sec)
Heartbeat CPU 0 instructions: 1210000001 cycles: 340860221 heartbeat IPC: 2.391 cumulative IPC: 2.362 (Simulation time: 01 hr 15 min 45 sec)
Heartbeat CPU 0 instructions: 1220000003 cycles: 345041814 heartbeat IPC: 2.391 cumulative IPC: 2.363 (Simulation time: 01 hr 16 min 34 sec)
Heartbeat CPU 0 instructions: 1230000001 cycles: 349235823 heartbeat IPC: 2.384 cumulative IPC: 2.364 (Simulation time: 01 hr 17 min 14 sec)
Heartbeat CPU 0 instructions: 1240000002 cycles: 353432376 heartbeat IPC: 2.383 cumulative IPC: 2.365 (Simulation time: 01 hr 17 min 49 sec)
Heartbeat CPU 0 instructions: 1250000000 cycles: 357629287 heartbeat IPC: 2.383 cumulative IPC: 2.365 (Simulation time: 01 hr 18 min 16 sec)
Heartbeat CPU 0 instructions: 1260000001 cycles: 361810724 heartbeat IPC: 2.392 cumulative IPC: 2.366 (Simulation time: 01 hr 18 min 42 sec)
Heartbeat CPU 0 instructions: 1270000002 cycles: 366002094 heartbeat IPC: 2.386 cumulative IPC: 2.367 (Simulation time: 01 hr 19 min 17 sec)
Heartbeat CPU 0 instructions: 1280000000 cycles: 370198998 heartbeat IPC: 2.383 cumulative IPC: 2.368 (Simulation time: 01 hr 19 min 50 sec)
Heartbeat CPU 0 instructions: 1290000002 cycles: 374415032 heartbeat IPC: 2.372 cumulative IPC: 2.368 (Simulation time: 01 hr 20 min 25 sec)
Heartbeat CPU 0 instructions: 1300000001 cycles: 378606809 heartbeat IPC: 2.386 cumulative IPC: 2.368 (Simulation time: 01 hr 21 min 02 sec)
Heartbeat CPU 0 instructions: 1310000003 cycles: 382778253 heartbeat IPC: 2.397 cumulative IPC: 2.369 (Simulation time: 01 hr 21 min 39 sec)
Heartbeat CPU 0 instructions: 1320000003 cycles: 386945799 heartbeat IPC: 2.399 cumulative IPC: 2.37 (Simulation time: 01 hr 22 min 17 sec)
Heartbeat CPU 0 instructions: 1330000002 cycles: 391043304 heartbeat IPC: 2.441 cumulative IPC: 2.372 (Simulation time: 01 hr 22 min 52 sec)
Heartbeat CPU 0 instructions: 1340000004 cycles: 395143742 heartbeat IPC: 2.439 cumulative IPC: 2.374 (Simulation time: 01 hr 23 min 23 sec)
Heartbeat CPU 0 instructions: 1350000002 cycles: 399231284 heartbeat IPC: 2.446 cumulative IPC: 2.376 (Simulation time: 01 hr 23 min 54 sec)
Heartbeat CPU 0 instructions: 1360000004 cycles: 404106319 heartbeat IPC: 2.051 cumulative IPC: 2.366 (Simulation time: 01 hr 24 min 30 sec)
Heartbeat CPU 0 instructions: 1370000004 cycles: 409166407 heartbeat IPC: 1.976 cumulative IPC: 2.353 (Simulation time: 01 hr 25 min 19 sec)
Heartbeat CPU 0 instructions: 1380000000 cycles: 413322298 heartbeat IPC: 2.406 cumulative IPC: 2.355 (Simulation time: 01 hr 25 min 54 sec)
Heartbeat CPU 0 instructions: 1390000002 cycles: 417463704 heartbeat IPC: 2.415 cumulative IPC: 2.356 (Simulation time: 01 hr 26 min 29 sec)
Heartbeat CPU 0 instructions: 1400000001 cycles: 421604765 heartbeat IPC: 2.415 cumulative IPC: 2.358 (Simulation time: 01 hr 26 min 54 sec)
Heartbeat CPU 0 instructions: 1410000004 cycles: 425758835 heartbeat IPC: 2.407 cumulative IPC: 2.359 (Simulation time: 01 hr 27 min 20 sec)
Heartbeat CPU 0 instructions: 1420000000 cycles: 429890505 heartbeat IPC: 2.42 cumulative IPC: 2.36 (Simulation time: 01 hr 27 min 45 sec)
Heartbeat CPU 0 instructions: 1430000002 cycles: 434029929 heartbeat IPC: 2.416 cumulative IPC: 2.361 (Simulation time: 01 hr 28 min 11 sec)
Heartbeat CPU 0 instructions: 1440000000 cycles: 438144650 heartbeat IPC: 2.43 cumulative IPC: 2.363 (Simulation time: 01 hr 28 min 36 sec)
Heartbeat CPU 0 instructions: 1450000002 cycles: 442319876 heartbeat IPC: 2.395 cumulative IPC: 2.364 (Simulation time: 01 hr 29 min 02 sec)
Heartbeat CPU 0 instructions: 1460000002 cycles: 446465988 heartbeat IPC: 2.412 cumulative IPC: 2.365 (Simulation time: 01 hr 29 min 27 sec)
Heartbeat CPU 0 instructions: 1470000000 cycles: 450637257 heartbeat IPC: 2.397 cumulative IPC: 2.365 (Simulation time: 01 hr 29 min 53 sec)
Heartbeat CPU 0 instructions: 1480000000 cycles: 454846674 heartbeat IPC: 2.376 cumulative IPC: 2.366 (Simulation time: 01 hr 30 min 19 sec)
Heartbeat CPU 0 instructions: 1490000002 cycles: 459008359 heartbeat IPC: 2.403 cumulative IPC: 2.366 (Simulation time: 01 hr 30 min 45 sec)
Heartbeat CPU 0 instructions: 1500000000 cycles: 463178498 heartbeat IPC: 2.398 cumulative IPC: 2.367 (Simulation time: 01 hr 31 min 10 sec)
Simulation finished CPU 0 instructions: 500000003 cycles: 211236310 cumulative IPC: 2.367 (Simulation time: 01 hr 31 min 10 sec)
Simulation complete CPU 0 instructions: 500000003 cycles: 211236310 cumulative IPC: 2.367 (Simulation time: 01 hr 31 min 10 sec)

ChampSim completed all CPUs

=== Simulation ===
CPU 0 runs traces/603.bwaves_s-1080B.champsimtrace.xz
Region of Interest Statistics

CPU 0 cumulative IPC: 2.367 instructions: 500000003 cycles: 211236310
CPU 0 Branch Prediction Accuracy: 90.74% MPKI: 13.44 Average ROB Occupancy at Mispredict: 29.14
Branch type MPKI
BRANCH_DIRECT_JUMP: 0.186
BRANCH_INDIRECT: 0
BRANCH_CONDITIONAL: 13.1
BRANCH_DIRECT_CALL: 0
BRANCH_INDIRECT_CALL: 0
BRANCH_RETURN: 0.131

LLC TOTAL        ACCESS:     327999 HIT:     155954 MISS:     172045
LLC LOAD         ACCESS:      15726 HIT:         13 MISS:      15713
LLC RFO          ACCESS:     156314 HIT:         16 MISS:     156298
LLC PREFETCH     ACCESS:          0 HIT:          0 MISS:          0
LLC WRITE        ACCESS:     155938 HIT:     155922 MISS:         16
LLC TRANSLATION  ACCESS:         21 HIT:          3 MISS:         18
LLC PREFETCH REQUESTED:          0 ISSUED:          0 USEFUL:          0 USELESS:          0
LLC AVERAGE MISS LATENCY: 407.6 cycles
cpu0_DTLB TOTAL        ACCESS:   81925390 HIT:   81901476 MISS:      23914
cpu0_DTLB LOAD         ACCESS:   81925390 HIT:   81901476 MISS:      23914
cpu0_DTLB RFO          ACCESS:          0 HIT:          0 MISS:          0
cpu0_DTLB PREFETCH     ACCESS:          0 HIT:          0 MISS:          0
cpu0_DTLB WRITE        ACCESS:          0 HIT:          0 MISS:          0
cpu0_DTLB TRANSLATION  ACCESS:          0 HIT:          0 MISS:          0
cpu0_DTLB PREFETCH REQUESTED:          0 ISSUED:          0 USEFUL:          0 USELESS:          0
cpu0_DTLB AVERAGE MISS LATENCY: 19.63 cycles
cpu0_ITLB TOTAL        ACCESS:    1897711 HIT:    1897711 MISS:          0
cpu0_ITLB LOAD         ACCESS:    1897711 HIT:    1897711 MISS:          0
cpu0_ITLB RFO          ACCESS:          0 HIT:          0 MISS:          0
cpu0_ITLB PREFETCH     ACCESS:          0 HIT:          0 MISS:          0
cpu0_ITLB WRITE        ACCESS:          0 HIT:          0 MISS:          0
cpu0_ITLB TRANSLATION  ACCESS:          0 HIT:          0 MISS:          0
cpu0_ITLB PREFETCH REQUESTED:          0 ISSUED:          0 USEFUL:          0 USELESS:          0
cpu0_ITLB AVERAGE MISS LATENCY: -nan cycles
cpu0_L1D TOTAL        ACCESS:  126332126 HIT:  125139771 MISS:    1192355
cpu0_L1D LOAD         ACCESS:  105209685 HIT:  105166126 MISS:      43559
cpu0_L1D RFO          ACCESS:          0 HIT:          0 MISS:          0
cpu0_L1D PREFETCH     ACCESS:          0 HIT:          0 MISS:          0
cpu0_L1D WRITE        ACCESS:   21119745 HIT:   19971214 MISS:    1148531
cpu0_L1D TRANSLATION  ACCESS:       2696 HIT:       2431 MISS:        265
cpu0_L1D PREFETCH REQUESTED:          0 ISSUED:          0 USEFUL:          0 USELESS:          0
cpu0_L1D AVERAGE MISS LATENCY: 59.05 cycles
cpu0_L1I TOTAL        ACCESS:    2194752 HIT:    2194752 MISS:          0
cpu0_L1I LOAD         ACCESS:    2194752 HIT:    2194752 MISS:          0
cpu0_L1I RFO          ACCESS:          0 HIT:          0 MISS:          0
cpu0_L1I PREFETCH     ACCESS:          0 HIT:          0 MISS:          0
cpu0_L1I WRITE        ACCESS:          0 HIT:          0 MISS:          0
cpu0_L1I TRANSLATION  ACCESS:          0 HIT:          0 MISS:          0
cpu0_L1I PREFETCH REQUESTED:          0 ISSUED:          0 USEFUL:          0 USELESS:          0
cpu0_L1I AVERAGE MISS LATENCY: -nan cycles
cpu0_L2C TOTAL        ACCESS:     331543 HIT:     159467 MISS:     172076
cpu0_L2C LOAD         ACCESS:      16925 HIT:       1199 MISS:      15726
cpu0_L2C RFO          ACCESS:     157524 HIT:       1210 MISS:     156314
cpu0_L2C PREFETCH     ACCESS:          0 HIT:          0 MISS:          0
cpu0_L2C WRITE        ACCESS:     156829 HIT:     156814 MISS:         15
cpu0_L2C TRANSLATION  ACCESS:        265 HIT:        244 MISS:         21
cpu0_L2C PREFETCH REQUESTED:          0 ISSUED:          0 USEFUL:          0 USELESS:          0
cpu0_L2C AVERAGE MISS LATENCY: 428.6 cycles
cpu0_STLB TOTAL        ACCESS:       2814 HIT:        123 MISS:       2691
cpu0_STLB LOAD         ACCESS:       2814 HIT:        123 MISS:       2691
cpu0_STLB RFO          ACCESS:          0 HIT:          0 MISS:          0
cpu0_STLB PREFETCH     ACCESS:          0 HIT:          0 MISS:          0
cpu0_STLB WRITE        ACCESS:          0 HIT:          0 MISS:          0
cpu0_STLB TRANSLATION  ACCESS:          0 HIT:          0 MISS:          0
cpu0_STLB PREFETCH REQUESTED:          0 ISSUED:          0 USEFUL:          0 USELESS:          0
cpu0_STLB AVERAGE MISS LATENCY: 209.5 cycles

DRAM Statistics

Channel 0 RQ ROW_BUFFER_HIT:      59409
  ROW_BUFFER_MISS:     112620
 AVG DBUS CONGESTED CYCLE: 3.93
WQ ROW_BUFFER_HIT: Channel 0 
  ROW_BUFFER_MISS:      54176
  FULL:     101691
