WARNING: physical memory size is smaller than virtual memory size.

*** ChampSim Multicore Out-of-Order Simulator ***
Warmup Instructions: 1000000000
Simulation Instructions: 500000000
Number of CPUs: 1
Page size: 4096

Off-chip DRAM Size: 4 GiB Channels: 1 Width: 64-bit Data Race: 3200 MT/s
Heartbeat CPU 0 instructions: 10000002 cycles: 2521306 heartbeat IPC: 3.966 cumulative IPC: 3.966 (Simulation time: 00 hr 00 min 18 sec)
Heartbeat CPU 0 instructions: 20000002 cycles: 5034840 heartbeat IPC: 3.978 cumulative IPC: 3.972 (Simulation time: 00 hr 00 min 36 sec)
Heartbeat CPU 0 instructions: 30000000 cycles: 7565445 heartbeat IPC: 3.952 cumulative IPC: 3.965 (Simulation time: 00 hr 00 min 55 sec)
Heartbeat CPU 0 instructions: 40000001 cycles: 10096084 heartbeat IPC: 3.952 cumulative IPC: 3.962 (Simulation time: 00 hr 01 min 13 sec)
Heartbeat CPU 0 instructions: 50000000 cycles: 12626340 heartbeat IPC: 3.952 cumulative IPC: 3.96 (Simulation time: 00 hr 01 min 47 sec)
Heartbeat CPU 0 instructions: 60000000 cycles: 15158733 heartbeat IPC: 3.949 cumulative IPC: 3.958 (Simulation time: 00 hr 02 min 21 sec)
Heartbeat CPU 0 instructions: 70000001 cycles: 17691352 heartbeat IPC: 3.948 cumulative IPC: 3.957 (Simulation time: 00 hr 02 min 55 sec)
Heartbeat CPU 0 instructions: 80000001 cycles: 20223987 heartbeat IPC: 3.948 cumulative IPC: 3.956 (Simulation time: 00 hr 03 min 29 sec)
Heartbeat CPU 0 instructions: 90000003 cycles: 22756300 heartbeat IPC: 3.949 cumulative IPC: 3.955 (Simulation time: 00 hr 04 min 04 sec)
Heartbeat CPU 0 instructions: 100000003 cycles: 25289856 heartbeat IPC: 3.947 cumulative IPC: 3.954 (Simulation time: 00 hr 04 min 38 sec)
Heartbeat CPU 0 instructions: 110000003 cycles: 27824188 heartbeat IPC: 3.946 cumulative IPC: 3.953 (Simulation time: 00 hr 05 min 12 sec)
Heartbeat CPU 0 instructions: 120000003 cycles: 30359116 heartbeat IPC: 3.945 cumulative IPC: 3.953 (Simulation time: 00 hr 05 min 46 sec)
Heartbeat CPU 0 instructions: 130000002 cycles: 32894352 heartbeat IPC: 3.944 cumulative IPC: 3.952 (Simulation time: 00 hr 06 min 20 sec)
Heartbeat CPU 0 instructions: 140000000 cycles: 35429286 heartbeat IPC: 3.945 cumulative IPC: 3.952 (Simulation time: 00 hr 06 min 54 sec)
Heartbeat CPU 0 instructions: 150000002 cycles: 37962902 heartbeat IPC: 3.947 cumulative IPC: 3.951 (Simulation time: 00 hr 07 min 30 sec)
Heartbeat CPU 0 instructions: 160000000 cycles: 40496923 heartbeat IPC: 3.946 cumulative IPC: 3.951 (Simulation time: 00 hr 08 min 05 sec)
Heartbeat CPU 0 instructions: 170000003 cycles: 43029786 heartbeat IPC: 3.948 cumulative IPC: 3.951 (Simulation time: 00 hr 08 min 39 sec)
Heartbeat CPU 0 instructions: 180000003 cycles: 45563748 heartbeat IPC: 3.946 cumulative IPC: 3.951 (Simulation time: 00 hr 09 min 13 sec)
Heartbeat CPU 0 instructions: 190000002 cycles: 48096947 heartbeat IPC: 3.948 cumulative IPC: 3.95 (Simulation time: 00 hr 09 min 47 sec)
Heartbeat CPU 0 instructions: 200000001 cycles: 50629997 heartbeat IPC: 3.948 cumulative IPC: 3.95 (Simulation time: 00 hr 10 min 17 sec)
Heartbeat CPU 0 instructions: 210000002 cycles: 53163856 heartbeat IPC: 3.947 cumulative IPC: 3.95 (Simulation time: 00 hr 10 min 52 sec)
Heartbeat CPU 0 instructions: 220000002 cycles: 55696733 heartbeat IPC: 3.948 cumulative IPC: 3.95 (Simulation time: 00 hr 11 min 26 sec)
Heartbeat CPU 0 instructions: 230000000 cycles: 58230452 heartbeat IPC: 3.947 cumulative IPC: 3.95 (Simulation time: 00 hr 12 min 01 sec)
Heartbeat CPU 0 instructions: 240000003 cycles: 60763724 heartbeat IPC: 3.947 cumulative IPC: 3.95 (Simulation time: 00 hr 12 min 35 sec)
Heartbeat CPU 0 instructions: 250000002 cycles: 63296946 heartbeat IPC: 3.948 cumulative IPC: 3.95 (Simulation time: 00 hr 13 min 07 sec)
Heartbeat CPU 0 instructions: 260000003 cycles: 65830518 heartbeat IPC: 3.947 cumulative IPC: 3.95 (Simulation time: 00 hr 13 min 42 sec)
Heartbeat CPU 0 instructions: 270000002 cycles: 68363631 heartbeat IPC: 3.948 cumulative IPC: 3.949 (Simulation time: 00 hr 14 min 14 sec)
Heartbeat CPU 0 instructions: 280000001 cycles: 70897042 heartbeat IPC: 3.947 cumulative IPC: 3.949 (Simulation time: 00 hr 14 min 33 sec)
Heartbeat CPU 0 instructions: 290000001 cycles: 73430612 heartbeat IPC: 3.947 cumulative IPC: 3.949 (Simulation time: 00 hr 15 min 02 sec)
Heartbeat CPU 0 instructions: 300000000 cycles: 75963804 heartbeat IPC: 3.948 cumulative IPC: 3.949 (Simulation time: 00 hr 15 min 36 sec)
Heartbeat CPU 0 instructions: 310000000 cycles: 78497285 heartbeat IPC: 3.947 cumulative IPC: 3.949 (Simulation time: 00 hr 16 min 11 sec)
Heartbeat CPU 0 instructions: 320000002 cycles: 81030523 heartbeat IPC: 3.948 cumulative IPC: 3.949 (Simulation time: 00 hr 16 min 45 sec)
Heartbeat CPU 0 instructions: 330000001 cycles: 83564282 heartbeat IPC: 3.947 cumulative IPC: 3.949 (Simulation time: 00 hr 17 min 19 sec)
Heartbeat CPU 0 instructions: 340000001 cycles: 86098151 heartbeat IPC: 3.947 cumulative IPC: 3.949 (Simulation time: 00 hr 17 min 54 sec)
Heartbeat CPU 0 instructions: 350000000 cycles: 88633037 heartbeat IPC: 3.945 cumulative IPC: 3.949 (Simulation time: 00 hr 18 min 20 sec)
Heartbeat CPU 0 instructions: 360000001 cycles: 91168416 heartbeat IPC: 3.944 cumulative IPC: 3.949 (Simulation time: 00 hr 18 min 43 sec)
Heartbeat CPU 0 instructions: 370000002 cycles: 93703252 heartbeat IPC: 3.945 cumulative IPC: 3.949 (Simulation time: 00 hr 19 min 06 sec)
Heartbeat CPU 0 instructions: 380000000 cycles: 96237554 heartbeat IPC: 3.946 cumulative IPC: 3.949 (Simulation time: 00 hr 19 min 26 sec)
Heartbeat CPU 0 instructions: 390000000 cycles: 98770654 heartbeat IPC: 3.948 cumulative IPC: 3.949 (Simulation time: 00 hr 19 min 45 sec)
Heartbeat CPU 0 instructions: 400000003 cycles: 101303402 heartbeat IPC: 3.948 cumulative IPC: 3.949 (Simulation time: 00 hr 20 min 11 sec)
Heartbeat CPU 0 instructions: 410000002 cycles: 103835809 heartbeat IPC: 3.949 cumulative IPC: 3.949 (Simulation time: 00 hr 20 min 48 sec)
Heartbeat CPU 0 instructions: 420000004 cycles: 106368424 heartbeat IPC: 3.948 cumulative IPC: 3.949 (Simulation time: 00 hr 21 min 27 sec)
Heartbeat CPU 0 instructions: 430000001 cycles: 108900435 heartbeat IPC: 3.949 cumulative IPC: 3.949 (Simulation time: 00 hr 22 min 03 sec)
Heartbeat CPU 0 instructions: 440000003 cycles: 111430838 heartbeat IPC: 3.952 cumulative IPC: 3.949 (Simulation time: 00 hr 22 min 41 sec)
Heartbeat CPU 0 instructions: 450000004 cycles: 113961328 heartbeat IPC: 3.952 cumulative IPC: 3.949 (Simulation time: 00 hr 23 min 06 sec)
Heartbeat CPU 0 instructions: 460000001 cycles: 116491861 heartbeat IPC: 3.952 cumulative IPC: 3.949 (Simulation time: 00 hr 23 min 49 sec)
Heartbeat CPU 0 instructions: 470000003 cycles: 119002224 heartbeat IPC: 3.983 cumulative IPC: 3.95 (Simulation time: 00 hr 24 min 32 sec)
Heartbeat CPU 0 instructions: 480000002 cycles: 121528214 heartbeat IPC: 3.959 cumulative IPC: 3.95 (Simulation time: 00 hr 25 min 08 sec)
Heartbeat CPU 0 instructions: 490000001 cycles: 124062405 heartbeat IPC: 3.946 cumulative IPC: 3.95 (Simulation time: 00 hr 25 min 43 sec)
Heartbeat CPU 0 instructions: 500000003 cycles: 126595665 heartbeat IPC: 3.947 cumulative IPC: 3.95 (Simulation time: 00 hr 26 min 18 sec)
Heartbeat CPU 0 instructions: 510000003 cycles: 129127557 heartbeat IPC: 3.95 cumulative IPC: 3.95 (Simulation time: 00 hr 26 min 53 sec)
Heartbeat CPU 0 instructions: 520000001 cycles: 131659702 heartbeat IPC: 3.949 cumulative IPC: 3.95 (Simulation time: 00 hr 27 min 26 sec)
Heartbeat CPU 0 instructions: 530000001 cycles: 134181121 heartbeat IPC: 3.966 cumulative IPC: 3.95 (Simulation time: 00 hr 28 min 01 sec)
Heartbeat CPU 0 instructions: 540000003 cycles: 136701086 heartbeat IPC: 3.968 cumulative IPC: 3.95 (Simulation time: 00 hr 28 min 36 sec)
Heartbeat CPU 0 instructions: 550000003 cycles: 139221154 heartbeat IPC: 3.968 cumulative IPC: 3.951 (Simulation time: 00 hr 29 min 12 sec)
Heartbeat CPU 0 instructions: 560000003 cycles: 141741485 heartbeat IPC: 3.968 cumulative IPC: 3.951 (Simulation time: 00 hr 29 min 47 sec)
Heartbeat CPU 0 instructions: 570000003 cycles: 144261513 heartbeat IPC: 3.968 cumulative IPC: 3.951 (Simulation time: 00 hr 30 min 22 sec)
Heartbeat CPU 0 instructions: 580000003 cycles: 146781575 heartbeat IPC: 3.968 cumulative IPC: 3.951 (Simulation time: 00 hr 30 min 57 sec)
Heartbeat CPU 0 instructions: 590000001 cycles: 149300988 heartbeat IPC: 3.969 cumulative IPC: 3.952 (Simulation time: 00 hr 31 min 33 sec)
Heartbeat CPU 0 instructions: 600000001 cycles: 151820016 heartbeat IPC: 3.97 cumulative IPC: 3.952 (Simulation time: 00 hr 32 min 08 sec)
Heartbeat CPU 0 instructions: 610000001 cycles: 154339043 heartbeat IPC: 3.97 cumulative IPC: 3.952 (Simulation time: 00 hr 32 min 43 sec)
Heartbeat CPU 0 instructions: 620000001 cycles: 156858070 heartbeat IPC: 3.97 cumulative IPC: 3.953 (Simulation time: 00 hr 33 min 18 sec)
Heartbeat CPU 0 instructions: 630000001 cycles: 159377101 heartbeat IPC: 3.97 cumulative IPC: 3.953 (Simulation time: 00 hr 33 min 53 sec)
Heartbeat CPU 0 instructions: 640000002 cycles: 161897981 heartbeat IPC: 3.967 cumulative IPC: 3.953 (Simulation time: 00 hr 34 min 28 sec)
Heartbeat CPU 0 instructions: 650000003 cycles: 164429761 heartbeat IPC: 3.95 cumulative IPC: 3.953 (Simulation time: 00 hr 35 min 03 sec)
Heartbeat CPU 0 instructions: 660000003 cycles: 166962922 heartbeat IPC: 3.948 cumulative IPC: 3.953 (Simulation time: 00 hr 35 min 37 sec)
Heartbeat CPU 0 instructions: 670000003 cycles: 169490611 heartbeat IPC: 3.956 cumulative IPC: 3.953 (Simulation time: 00 hr 36 min 12 sec)
Heartbeat CPU 0 instructions: 680000003 cycles: 172024836 heartbeat IPC: 3.946 cumulative IPC: 3.953 (Simulation time: 00 hr 36 min 37 sec)
Heartbeat CPU 0 instructions: 690000001 cycles: 174559506 heartbeat IPC: 3.945 cumulative IPC: 3.953 (Simulation time: 00 hr 36 min 55 sec)
Heartbeat CPU 0 instructions: 700000003 cycles: 177094187 heartbeat IPC: 3.945 cumulative IPC: 3.953 (Simulation time: 00 hr 37 min 14 sec)
Heartbeat CPU 0 instructions: 710000000 cycles: 179628762 heartbeat IPC: 3.945 cumulative IPC: 3.953 (Simulation time: 00 hr 37 min 32 sec)
Heartbeat CPU 0 instructions: 720000001 cycles: 182161488 heartbeat IPC: 3.948 cumulative IPC: 3.953 (Simulation time: 00 hr 37 min 51 sec)
Heartbeat CPU 0 instructions: 730000003 cycles: 184668706 heartbeat IPC: 3.988 cumulative IPC: 3.953 (Simulation time: 00 hr 38 min 29 sec)
Heartbeat CPU 0 instructions: 740000000 cycles: 187198912 heartbeat IPC: 3.952 cumulative IPC: 3.953 (Simulation time: 00 hr 39 min 04 sec)
Heartbeat CPU 0 instructions: 750000001 cycles: 189734112 heartbeat IPC: 3.944 cumulative IPC: 3.953 (Simulation time: 00 hr 39 min 39 sec)
Heartbeat CPU 0 instructions: 760000003 cycles: 192269030 heartbeat IPC: 3.945 cumulative IPC: 3.953 (Simulation time: 00 hr 40 min 14 sec)
Heartbeat CPU 0 instructions: 770000000 cycles: 194804251 heartbeat IPC: 3.944 cumulative IPC: 3.953 (Simulation time: 00 hr 40 min 49 sec)
Heartbeat CPU 0 instructions: 780000001 cycles: 197338355 heartbeat IPC: 3.946 cumulative IPC: 3.953 (Simulation time: 00 hr 41 min 23 sec)
Heartbeat CPU 0 instructions: 790000000 cycles: 199872258 heartbeat IPC: 3.946 cumulative IPC: 3.953 (Simulation time: 00 hr 41 min 58 sec)
Heartbeat CPU 0 instructions: 800000003 cycles: 202402711 heartbeat IPC: 3.952 cumulative IPC: 3.953 (Simulation time: 00 hr 42 min 34 sec)
Heartbeat CPU 0 instructions: 810000001 cycles: 204929368 heartbeat IPC: 3.958 cumulative IPC: 3.953 (Simulation time: 00 hr 43 min 09 sec)
Heartbeat CPU 0 instructions: 820000000 cycles: 207454881 heartbeat IPC: 3.96 cumulative IPC: 3.953 (Simulation time: 00 hr 43 min 44 sec)
Heartbeat CPU 0 instructions: 830000001 cycles: 209985124 heartbeat IPC: 3.952 cumulative IPC: 3.953 (Simulation time: 00 hr 44 min 19 sec)
Heartbeat CPU 0 instructions: 840000000 cycles: 212515324 heartbeat IPC: 3.952 cumulative IPC: 3.953 (Simulation time: 00 hr 44 min 54 sec)
Heartbeat CPU 0 instructions: 850000001 cycles: 215045581 heartbeat IPC: 3.952 cumulative IPC: 3.953 (Simulation time: 00 hr 45 min 29 sec)
Heartbeat CPU 0 instructions: 860000000 cycles: 217575829 heartbeat IPC: 3.952 cumulative IPC: 3.953 (Simulation time: 00 hr 46 min 04 sec)
Heartbeat CPU 0 instructions: 870000001 cycles: 220106071 heartbeat IPC: 3.952 cumulative IPC: 3.953 (Simulation time: 00 hr 46 min 40 sec)
Heartbeat CPU 0 instructions: 880000002 cycles: 222636326 heartbeat IPC: 3.952 cumulative IPC: 3.953 (Simulation time: 00 hr 47 min 15 sec)
Heartbeat CPU 0 instructions: 890000001 cycles: 225166535 heartbeat IPC: 3.952 cumulative IPC: 3.953 (Simulation time: 00 hr 47 min 50 sec)
Heartbeat CPU 0 instructions: 900000001 cycles: 227696730 heartbeat IPC: 3.952 cumulative IPC: 3.953 (Simulation time: 00 hr 48 min 25 sec)
Heartbeat CPU 0 instructions: 910000003 cycles: 230226919 heartbeat IPC: 3.952 cumulative IPC: 3.953 (Simulation time: 00 hr 49 min 00 sec)
Heartbeat CPU 0 instructions: 920000002 cycles: 232757124 heartbeat IPC: 3.952 cumulative IPC: 3.953 (Simulation time: 00 hr 49 min 35 sec)
Heartbeat CPU 0 instructions: 930000001 cycles: 235280036 heartbeat IPC: 3.964 cumulative IPC: 3.953 (Simulation time: 00 hr 50 min 10 sec)
Heartbeat CPU 0 instructions: 940000000 cycles: 237810514 heartbeat IPC: 3.952 cumulative IPC: 3.953 (Simulation time: 00 hr 50 min 46 sec)
Heartbeat CPU 0 instructions: 950000000 cycles: 240339796 heartbeat IPC: 3.954 cumulative IPC: 3.953 (Simulation time: 00 hr 51 min 21 sec)
Heartbeat CPU 0 instructions: 960000000 cycles: 242870504 heartbeat IPC: 3.951 cumulative IPC: 3.953 (Simulation time: 00 hr 51 min 56 sec)
Heartbeat CPU 0 instructions: 970000001 cycles: 245404911 heartbeat IPC: 3.946 cumulative IPC: 3.953 (Simulation time: 00 hr 52 min 31 sec)
Heartbeat CPU 0 instructions: 980000002 cycles: 247939766 heartbeat IPC: 3.945 cumulative IPC: 3.953 (Simulation time: 00 hr 53 min 05 sec)
Heartbeat CPU 0 instructions: 990000001 cycles: 250474941 heartbeat IPC: 3.945 cumulative IPC: 3.952 (Simulation time: 00 hr 53 min 40 sec)
Heartbeat CPU 0 instructions: 1000000002 cycles: 253009981 heartbeat IPC: 3.945 cumulative IPC: 3.952 (Simulation time: 00 hr 54 min 15 sec)
Warmup finished CPU 0 instructions: 1000000002 cycles: 253009982 cumulative IPC: 3.952 (Simulation time: 00 hr 54 min 15 sec)
Warmup complete CPU 0 instructions: 1000000002 cycles: 253009982 cumulative IPC: 3.952 (Simulation time: 00 hr 54 min 15 sec)
Heartbeat CPU 0 instructions: 1010000000 cycles: 256638874 heartbeat IPC: 2.756 cumulative IPC: 2.756 (Simulation time: 00 hr 55 min 05 sec)
Heartbeat CPU 0 instructions: 1020000001 cycles: 261374068 heartbeat IPC: 2.112 cumulative IPC: 2.391 (Simulation time: 00 hr 56 min 07 sec)
Heartbeat CPU 0 instructions: 1030000002 cycles: 264097955 heartbeat IPC: 3.671 cumulative IPC: 2.706 (Simulation time: 00 hr 56 min 48 sec)
Heartbeat CPU 0 instructions: 1040000003 cycles: 266819903 heartbeat IPC: 3.674 cumulative IPC: 2.896 (Simulation time: 00 hr 57 min 28 sec)
Heartbeat CPU 0 instructions: 1050000000 cycles: 269543225 heartbeat IPC: 3.672 cumulative IPC: 3.024 (Simulation time: 00 hr 58 min 09 sec)
Heartbeat CPU 0 instructions: 1060000003 cycles: 272373349 heartbeat IPC: 3.533 cumulative IPC: 3.099 (Simulation time: 00 hr 58 min 51 sec)
Heartbeat CPU 0 instructions: 1070000002 cycles: 275185662 heartbeat IPC: 3.556 cumulative IPC: 3.157 (Simulation time: 00 hr 59 min 32 sec)
Heartbeat CPU 0 instructions: 1080000001 cycles: 278008745 heartbeat IPC: 3.542 cumulative IPC: 3.2 (Simulation time: 01 hr 00 min 14 sec)
Heartbeat CPU 0 instructions: 1090000000 cycles: 280840795 heartbeat IPC: 3.531 cumulative IPC: 3.234 (Simulation time: 01 hr 00 min 56 sec)
Heartbeat CPU 0 instructions: 1100000001 cycles: 283650926 heartbeat IPC: 3.559 cumulative IPC: 3.264 (Simulation time: 01 hr 01 min 31 sec)
Heartbeat CPU 0 instructions: 1110000001 cycles: 286445775 heartbeat IPC: 3.578 cumulative IPC: 3.29 (Simulation time: 01 hr 01 min 54 sec)
Heartbeat CPU 0 instructions: 1120000003 cycles: 289244969 heartbeat IPC: 3.572 cumulative IPC: 3.312 (Simulation time: 01 hr 02 min 16 sec)
Heartbeat CPU 0 instructions: 1130000002 cycles: 292050856 heartbeat IPC: 3.564 cumulative IPC: 3.33 (Simulation time: 01 hr 02 min 40 sec)
Heartbeat CPU 0 instructions: 1140000003 cycles: 294832266 heartbeat IPC: 3.595 cumulative IPC: 3.347 (Simulation time: 01 hr 03 min 02 sec)
Heartbeat CPU 0 instructions: 1150000000 cycles: 297636225 heartbeat IPC: 3.566 cumulative IPC: 3.361 (Simulation time: 01 hr 03 min 25 sec)
Heartbeat CPU 0 instructions: 1160000000 cycles: 300432713 heartbeat IPC: 3.576 cumulative IPC: 3.374 (Simulation time: 01 hr 03 min 48 sec)
Heartbeat CPU 0 instructions: 1170000001 cycles: 303240535 heartbeat IPC: 3.561 cumulative IPC: 3.384 (Simulation time: 01 hr 04 min 10 sec)
Heartbeat CPU 0 instructions: 1180000000 cycles: 306029853 heartbeat IPC: 3.585 cumulative IPC: 3.395 (Simulation time: 01 hr 04 min 33 sec)
Heartbeat CPU 0 instructions: 1190000000 cycles: 308832181 heartbeat IPC: 3.568 cumulative IPC: 3.404 (Simulation time: 01 hr 04 min 56 sec)
Heartbeat CPU 0 instructions: 1200000004 cycles: 311628144 heartbeat IPC: 3.577 cumulative IPC: 3.412 (Simulation time: 01 hr 05 min 18 sec)
Heartbeat CPU 0 instructions: 1210000001 cycles: 314404855 heartbeat IPC: 3.601 cumulative IPC: 3.42 (Simulation time: 01 hr 05 min 41 sec)
Heartbeat CPU 0 instructions: 1220000000 cycles: 317201195 heartbeat IPC: 3.576 cumulative IPC: 3.427 (Simulation time: 01 hr 06 min 03 sec)
Heartbeat CPU 0 instructions: 1230000001 cycles: 319990329 heartbeat IPC: 3.585 cumulative IPC: 3.434 (Simulation time: 01 hr 06 min 26 sec)
Heartbeat CPU 0 instructions: 1240000004 cycles: 322791097 heartbeat IPC: 3.57 cumulative IPC: 3.439 (Simulation time: 01 hr 06 min 48 sec)
Heartbeat CPU 0 instructions: 1250000001 cycles: 325590092 heartbeat IPC: 3.573 cumulative IPC: 3.444 (Simulation time: 01 hr 07 min 11 sec)
Heartbeat CPU 0 instructions: 1260000001 cycles: 328375600 heartbeat IPC: 3.59 cumulative IPC: 3.45 (Simulation time: 01 hr 07 min 33 sec)
Heartbeat CPU 0 instructions: 1270000002 cycles: 331172214 heartbeat IPC: 3.576 cumulative IPC: 3.454 (Simulation time: 01 hr 07 min 56 sec)
Heartbeat CPU 0 instructions: 1280000000 cycles: 333983685 heartbeat IPC: 3.557 cumulative IPC: 3.458 (Simulation time: 01 hr 08 min 19 sec)
Heartbeat CPU 0 instructions: 1290000002 cycles: 336816383 heartbeat IPC: 3.53 cumulative IPC: 3.46 (Simulation time: 01 hr 08 min 42 sec)
Heartbeat CPU 0 instructions: 1300000004 cycles: 339636217 heartbeat IPC: 3.546 cumulative IPC: 3.463 (Simulation time: 01 hr 09 min 05 sec)
Heartbeat CPU 0 instructions: 1310000004 cycles: 342425850 heartbeat IPC: 3.585 cumulative IPC: 3.467 (Simulation time: 01 hr 09 min 27 sec)
Heartbeat CPU 0 instructions: 1320000000 cycles: 345260011 heartbeat IPC: 3.528 cumulative IPC: 3.469 (Simulation time: 01 hr 09 min 50 sec)
Heartbeat CPU 0 instructions: 1330000000 cycles: 347986235 heartbeat IPC: 3.668 cumulative IPC: 3.475 (Simulation time: 01 hr 10 min 12 sec)
Heartbeat CPU 0 instructions: 1340000004 cycles: 350709257 heartbeat IPC: 3.672 cumulative IPC: 3.48 (Simulation time: 01 hr 10 min 34 sec)
Heartbeat CPU 0 instructions: 1350000000 cycles: 353435028 heartbeat IPC: 3.669 cumulative IPC: 3.485 (Simulation time: 01 hr 10 min 57 sec)
Heartbeat CPU 0 instructions: 1360000004 cycles: 357435450 heartbeat IPC: 2.5 cumulative IPC: 3.447 (Simulation time: 01 hr 11 min 26 sec)
Heartbeat CPU 0 instructions: 1370000004 cycles: 361701125 heartbeat IPC: 2.344 cumulative IPC: 3.404 (Simulation time: 01 hr 11 min 58 sec)
Heartbeat CPU 0 instructions: 1380000000 cycles: 364445092 heartbeat IPC: 3.644 cumulative IPC: 3.41 (Simulation time: 01 hr 12 min 20 sec)
Heartbeat CPU 0 instructions: 1390000002 cycles: 367189225 heartbeat IPC: 3.644 cumulative IPC: 3.416 (Simulation time: 01 hr 12 min 42 sec)
Heartbeat CPU 0 instructions: 1400000004 cycles: 369933161 heartbeat IPC: 3.644 cumulative IPC: 3.421 (Simulation time: 01 hr 13 min 04 sec)
Heartbeat CPU 0 instructions: 1410000004 cycles: 372703830 heartbeat IPC: 3.609 cumulative IPC: 3.425 (Simulation time: 01 hr 13 min 27 sec)
Heartbeat CPU 0 instructions: 1420000002 cycles: 375442643 heartbeat IPC: 3.651 cumulative IPC: 3.43 (Simulation time: 01 hr 13 min 49 sec)
Heartbeat CPU 0 instructions: 1430000000 cycles: 378182352 heartbeat IPC: 3.65 cumulative IPC: 3.435 (Simulation time: 01 hr 14 min 11 sec)
Heartbeat CPU 0 instructions: 1440000000 cycles: 380920968 heartbeat IPC: 3.651 cumulative IPC: 3.44 (Simulation time: 01 hr 14 min 33 sec)
Heartbeat CPU 0 instructions: 1450000002 cycles: 383721713 heartbeat IPC: 3.57 cumulative IPC: 3.443 (Simulation time: 01 hr 14 min 55 sec)
Heartbeat CPU 0 instructions: 1460000003 cycles: 386487225 heartbeat IPC: 3.616 cumulative IPC: 3.446 (Simulation time: 01 hr 15 min 18 sec)
Heartbeat CPU 0 instructions: 1470000000 cycles: 389307382 heartbeat IPC: 3.546 cumulative IPC: 3.448 (Simulation time: 01 hr 15 min 41 sec)
Heartbeat CPU 0 instructions: 1480000000 cycles: 392176951 heartbeat IPC: 3.485 cumulative IPC: 3.449 (Simulation time: 01 hr 16 min 04 sec)
Heartbeat CPU 0 instructions: 1490000000 cycles: 394954408 heartbeat IPC: 3.6 cumulative IPC: 3.452 (Simulation time: 01 hr 16 min 26 sec)
Heartbeat CPU 0 instructions: 1500000002 cycles: 397749157 heartbeat IPC: 3.578 cumulative IPC: 3.454 (Simulation time: 01 hr 16 min 48 sec)
Simulation finished CPU 0 instructions: 500000000 cycles: 144739176 cumulative IPC: 3.454 (Simulation time: 01 hr 16 min 48 sec)
Simulation complete CPU 0 instructions: 500000000 cycles: 144739176 cumulative IPC: 3.454 (Simulation time: 01 hr 16 min 48 sec)

ChampSim completed all CPUs

=== Simulation ===
CPU 0 runs traces/603.bwaves_s-1080B.champsimtrace.xz
Region of Interest Statistics

CPU 0 cumulative IPC: 3.454 instructions: 500000000 cycles: 144739176
CPU 0 Branch Prediction Accuracy: 99.05% MPKI: 1.383 Average ROB Occupancy at Mispredict: 121.7
Branch type MPKI
BRANCH_DIRECT_JUMP: 0.186
BRANCH_INDIRECT: 0
BRANCH_CONDITIONAL: 1.07
BRANCH_DIRECT_CALL: 0
BRANCH_INDIRECT_CALL: 0
BRANCH_RETURN: 0.131

LLC TOTAL        ACCESS:     328053 HIT:     156005 MISS:     172048
LLC LOAD         ACCESS:      15769 HIT:         15 MISS:      15754
LLC RFO          ACCESS:     156264 HIT:         13 MISS:     156251
LLC PREFETCH     ACCESS:          0 HIT:          0 MISS:          0
LLC WRITE        ACCESS:     155999 HIT:     155974 MISS:         25
LLC TRANSLATION  ACCESS:         21 HIT:          3 MISS:         18
LLC PREFETCH REQUESTED:          0 ISSUED:          0 USEFUL:          0 USELESS:          0
LLC AVERAGE MISS LATENCY: 409.1 cycles
cpu0_DTLB TOTAL        ACCESS:   82014256 HIT:   81990275 MISS:      23981
cpu0_DTLB LOAD         ACCESS:   82014256 HIT:   81990275 MISS:      23981
cpu0_DTLB RFO          ACCESS:          0 HIT:          0 MISS:          0
cpu0_DTLB PREFETCH     ACCESS:          0 HIT:          0 MISS:          0
cpu0_DTLB WRITE        ACCESS:          0 HIT:          0 MISS:          0
cpu0_DTLB TRANSLATION  ACCESS:          0 HIT:          0 MISS:          0
cpu0_DTLB PREFETCH REQUESTED:          0 ISSUED:          0 USEFUL:          0 USELESS:          0
cpu0_DTLB AVERAGE MISS LATENCY: 19.66 cycles
cpu0_ITLB TOTAL        ACCESS:    1897886 HIT:    1897886 MISS:          0
cpu0_ITLB LOAD         ACCESS:    1897886 HIT:    1897886 MISS:          0
cpu0_ITLB RFO          ACCESS:          0 HIT:          0 MISS:          0
cpu0_ITLB PREFETCH     ACCESS:          0 HIT:          0 MISS:          0
cpu0_ITLB WRITE        ACCESS:          0 HIT:          0 MISS:          0
cpu0_ITLB TRANSLATION  ACCESS:          0 HIT:          0 MISS:          0
cpu0_ITLB PREFETCH REQUESTED:          0 ISSUED:          0 USEFUL:          0 USELESS:          0
cpu0_ITLB AVERAGE MISS LATENCY: -nan cycles
cpu0_L1D TOTAL        ACCESS:  126278606 HIT:  125085923 MISS:    1192683
cpu0_L1D LOAD         ACCESS:  105160194 HIT:  105116599 MISS:      43595
cpu0_L1D RFO          ACCESS:          0 HIT:          0 MISS:          0
cpu0_L1D PREFETCH     ACCESS:          0 HIT:          0 MISS:          0
cpu0_L1D WRITE        ACCESS:   21115716 HIT:   19966893 MISS:    1148823
cpu0_L1D TRANSLATION  ACCESS:       2696 HIT:       2431 MISS:        265
cpu0_L1D PREFETCH REQUESTED:          0 ISSUED:          0 USEFUL:          0 USELESS:          0
cpu0_L1D AVERAGE MISS LATENCY: 59.25 cycles
cpu0_L1I TOTAL        ACCESS:    2200247 HIT:    2200247 MISS:          0
cpu0_L1I LOAD         ACCESS:    2200247 HIT:    2200247 MISS:          0
cpu0_L1I RFO          ACCESS:          0 HIT:          0 MISS:          0
cpu0_L1I PREFETCH     ACCESS:          0 HIT:          0 MISS:          0
cpu0_L1I WRITE        ACCESS:          0 HIT:          0 MISS:          0
cpu0_L1I TRANSLATION  ACCESS:          0 HIT:          0 MISS:          0
cpu0_L1I PREFETCH REQUESTED:          0 ISSUED:          0 USEFUL:          0 USELESS:          0
cpu0_L1I AVERAGE MISS LATENCY: -nan cycles
cpu0_L2C TOTAL        ACCESS:     331657 HIT:     159581 MISS:     172076
cpu0_L2C LOAD         ACCESS:      17000 HIT:       1231 MISS:      15769
cpu0_L2C RFO          ACCESS:     157468 HIT:       1204 MISS:     156264
cpu0_L2C PREFETCH     ACCESS:          0 HIT:          0 MISS:          0
cpu0_L2C WRITE        ACCESS:     156924 HIT:     156902 MISS:         22
cpu0_L2C TRANSLATION  ACCESS:        265 HIT:        244 MISS:         21
cpu0_L2C PREFETCH REQUESTED:          0 ISSUED:          0 USEFUL:          0 USELESS:          0
cpu0_L2C AVERAGE MISS LATENCY: 430 cycles
cpu0_STLB TOTAL        ACCESS:       2816 HIT:        125 MISS:       2691
cpu0_STLB LOAD         ACCESS:       2816 HIT:        125 MISS:       2691
cpu0_STLB RFO          ACCESS:          0 HIT:          0 MISS:          0
cpu0_STLB PREFETCH     ACCESS:          0 HIT:          0 MISS:          0
cpu0_STLB WRITE        ACCESS:          0 HIT:          0 MISS:          0
cpu0_STLB TRANSLATION  ACCESS:          0 HIT:          0 MISS:          0
cpu0_STLB PREFETCH REQUESTED:          0 ISSUED:          0 USEFUL:          0 USELESS:          0
cpu0_STLB AVERAGE MISS LATENCY: 210.5 cycles

DRAM Statistics

Channel 0 RQ ROW_BUFFER_HIT:      59865
  ROW_BUFFER_MISS:     112158
 AVG DBUS CONGESTED CYCLE: 3.931
WQ ROW_BUFFER_HIT: Channel 0 
  ROW_BUFFER_MISS:      53737
  FULL:     102190
