WARNING: physical memory size is smaller than virtual memory size.

*** ChampSim Multicore Out-of-Order Simulator ***
Warmup Instructions: 1000000000
Simulation Instructions: 500000000
Number of CPUs: 1
Page size: 4096

Off-chip DRAM Size: 4 GiB Channels: 1 Width: 64-bit Data Race: 3200 MT/s
Heartbeat CPU 0 instructions: 10000002 cycles: 2515885 heartbeat IPC: 3.975 cumulative IPC: 3.975 (Simulation time: 00 hr 00 min 14 sec)
Heartbeat CPU 0 instructions: 20000002 cycles: 5025353 heartbeat IPC: 3.985 cumulative IPC: 3.98 (Simulation time: 00 hr 00 min 29 sec)
Heartbeat CPU 0 instructions: 30000001 cycles: 7547151 heartbeat IPC: 3.965 cumulative IPC: 3.975 (Simulation time: 00 hr 00 min 44 sec)
Heartbeat CPU 0 instructions: 40000002 cycles: 10068999 heartbeat IPC: 3.965 cumulative IPC: 3.973 (Simulation time: 00 hr 00 min 58 sec)
Heartbeat CPU 0 instructions: 50000000 cycles: 12590198 heartbeat IPC: 3.966 cumulative IPC: 3.971 (Simulation time: 00 hr 01 min 16 sec)
Heartbeat CPU 0 instructions: 60000001 cycles: 15116184 heartbeat IPC: 3.959 cumulative IPC: 3.969 (Simulation time: 00 hr 01 min 38 sec)
Heartbeat CPU 0 instructions: 70000001 cycles: 17643897 heartbeat IPC: 3.956 cumulative IPC: 3.967 (Simulation time: 00 hr 01 min 56 sec)
Heartbeat CPU 0 instructions: 80000001 cycles: 20170071 heartbeat IPC: 3.959 cumulative IPC: 3.966 (Simulation time: 00 hr 02 min 14 sec)
Heartbeat CPU 0 instructions: 90000003 cycles: 22694161 heartbeat IPC: 3.962 cumulative IPC: 3.966 (Simulation time: 00 hr 02 min 32 sec)
Heartbeat CPU 0 instructions: 100000003 cycles: 25222228 heartbeat IPC: 3.956 cumulative IPC: 3.965 (Simulation time: 00 hr 02 min 49 sec)
Heartbeat CPU 0 instructions: 110000003 cycles: 27750242 heartbeat IPC: 3.956 cumulative IPC: 3.964 (Simulation time: 00 hr 03 min 08 sec)
Heartbeat CPU 0 instructions: 120000003 cycles: 30279701 heartbeat IPC: 3.953 cumulative IPC: 3.963 (Simulation time: 00 hr 03 min 25 sec)
Heartbeat CPU 0 instructions: 130000002 cycles: 32809200 heartbeat IPC: 3.953 cumulative IPC: 3.962 (Simulation time: 00 hr 03 min 43 sec)
Heartbeat CPU 0 instructions: 140000000 cycles: 35336864 heartbeat IPC: 3.956 cumulative IPC: 3.962 (Simulation time: 00 hr 04 min 01 sec)
Heartbeat CPU 0 instructions: 150000001 cycles: 37864815 heartbeat IPC: 3.956 cumulative IPC: 3.961 (Simulation time: 00 hr 04 min 19 sec)
Heartbeat CPU 0 instructions: 160000000 cycles: 40394598 heartbeat IPC: 3.953 cumulative IPC: 3.961 (Simulation time: 00 hr 04 min 37 sec)
Heartbeat CPU 0 instructions: 170000003 cycles: 42921641 heartbeat IPC: 3.957 cumulative IPC: 3.961 (Simulation time: 00 hr 04 min 54 sec)
Heartbeat CPU 0 instructions: 180000003 cycles: 45448696 heartbeat IPC: 3.957 cumulative IPC: 3.961 (Simulation time: 00 hr 05 min 12 sec)
Heartbeat CPU 0 instructions: 190000002 cycles: 47974055 heartbeat IPC: 3.96 cumulative IPC: 3.96 (Simulation time: 00 hr 05 min 35 sec)
Heartbeat CPU 0 instructions: 200000001 cycles: 50498992 heartbeat IPC: 3.96 cumulative IPC: 3.96 (Simulation time: 00 hr 05 min 54 sec)
Heartbeat CPU 0 instructions: 210000002 cycles: 53024784 heartbeat IPC: 3.959 cumulative IPC: 3.96 (Simulation time: 00 hr 06 min 13 sec)
Heartbeat CPU 0 instructions: 220000002 cycles: 55552289 heartbeat IPC: 3.956 cumulative IPC: 3.96 (Simulation time: 00 hr 06 min 40 sec)
Heartbeat CPU 0 instructions: 230000000 cycles: 58080648 heartbeat IPC: 3.955 cumulative IPC: 3.96 (Simulation time: 00 hr 06 min 59 sec)
Heartbeat CPU 0 instructions: 240000003 cycles: 60608179 heartbeat IPC: 3.956 cumulative IPC: 3.96 (Simulation time: 00 hr 07 min 17 sec)
Heartbeat CPU 0 instructions: 250000002 cycles: 63137106 heartbeat IPC: 3.954 cumulative IPC: 3.96 (Simulation time: 00 hr 07 min 35 sec)
Heartbeat CPU 0 instructions: 260000000 cycles: 65663627 heartbeat IPC: 3.958 cumulative IPC: 3.96 (Simulation time: 00 hr 07 min 55 sec)
Heartbeat CPU 0 instructions: 270000002 cycles: 68187457 heartbeat IPC: 3.962 cumulative IPC: 3.96 (Simulation time: 00 hr 08 min 12 sec)
Heartbeat CPU 0 instructions: 280000001 cycles: 70713285 heartbeat IPC: 3.959 cumulative IPC: 3.96 (Simulation time: 00 hr 08 min 30 sec)
Heartbeat CPU 0 instructions: 290000001 cycles: 73239888 heartbeat IPC: 3.958 cumulative IPC: 3.96 (Simulation time: 00 hr 08 min 48 sec)
Heartbeat CPU 0 instructions: 300000000 cycles: 75766415 heartbeat IPC: 3.958 cumulative IPC: 3.96 (Simulation time: 00 hr 09 min 06 sec)
Heartbeat CPU 0 instructions: 310000000 cycles: 78293807 heartbeat IPC: 3.957 cumulative IPC: 3.959 (Simulation time: 00 hr 09 min 26 sec)
Heartbeat CPU 0 instructions: 320000002 cycles: 80819532 heartbeat IPC: 3.959 cumulative IPC: 3.959 (Simulation time: 00 hr 09 min 51 sec)
Heartbeat CPU 0 instructions: 330000001 cycles: 83345072 heartbeat IPC: 3.96 cumulative IPC: 3.959 (Simulation time: 00 hr 10 min 15 sec)
Heartbeat CPU 0 instructions: 340000001 cycles: 85870941 heartbeat IPC: 3.959 cumulative IPC: 3.959 (Simulation time: 00 hr 10 min 39 sec)
Heartbeat CPU 0 instructions: 350000000 cycles: 88396473 heartbeat IPC: 3.96 cumulative IPC: 3.959 (Simulation time: 00 hr 11 min 02 sec)
Heartbeat CPU 0 instructions: 360000001 cycles: 90923752 heartbeat IPC: 3.957 cumulative IPC: 3.959 (Simulation time: 00 hr 11 min 28 sec)
Heartbeat CPU 0 instructions: 370000002 cycles: 93452652 heartbeat IPC: 3.954 cumulative IPC: 3.959 (Simulation time: 00 hr 11 min 47 sec)
Heartbeat CPU 0 instructions: 380000000 cycles: 95979498 heartbeat IPC: 3.958 cumulative IPC: 3.959 (Simulation time: 00 hr 12 min 06 sec)
Heartbeat CPU 0 instructions: 390000000 cycles: 98503148 heartbeat IPC: 3.963 cumulative IPC: 3.959 (Simulation time: 00 hr 12 min 30 sec)
Heartbeat CPU 0 instructions: 400000003 cycles: 101029065 heartbeat IPC: 3.959 cumulative IPC: 3.959 (Simulation time: 00 hr 12 min 51 sec)
Heartbeat CPU 0 instructions: 410000002 cycles: 103555743 heartbeat IPC: 3.958 cumulative IPC: 3.959 (Simulation time: 00 hr 13 min 11 sec)
Heartbeat CPU 0 instructions: 420000004 cycles: 106083885 heartbeat IPC: 3.955 cumulative IPC: 3.959 (Simulation time: 00 hr 13 min 29 sec)
Heartbeat CPU 0 instructions: 430000001 cycles: 108610688 heartbeat IPC: 3.958 cumulative IPC: 3.959 (Simulation time: 00 hr 13 min 47 sec)
Heartbeat CPU 0 instructions: 440000003 cycles: 111135131 heartbeat IPC: 3.961 cumulative IPC: 3.959 (Simulation time: 00 hr 14 min 05 sec)
Heartbeat CPU 0 instructions: 450000004 cycles: 113658103 heartbeat IPC: 3.964 cumulative IPC: 3.959 (Simulation time: 00 hr 14 min 35 sec)
Heartbeat CPU 0 instructions: 460000001 cycles: 116181376 heartbeat IPC: 3.963 cumulative IPC: 3.959 (Simulation time: 00 hr 15 min 14 sec)
Heartbeat CPU 0 instructions: 470000003 cycles: 118689811 heartbeat IPC: 3.987 cumulative IPC: 3.96 (Simulation time: 00 hr 15 min 45 sec)
Heartbeat CPU 0 instructions: 480000002 cycles: 121210945 heartbeat IPC: 3.966 cumulative IPC: 3.96 (Simulation time: 00 hr 16 min 04 sec)
Heartbeat CPU 0 instructions: 490000001 cycles: 123738060 heartbeat IPC: 3.957 cumulative IPC: 3.96 (Simulation time: 00 hr 16 min 22 sec)
Heartbeat CPU 0 instructions: 500000003 cycles: 126266532 heartbeat IPC: 3.955 cumulative IPC: 3.96 (Simulation time: 00 hr 16 min 40 sec)
Heartbeat CPU 0 instructions: 510000003 cycles: 128791315 heartbeat IPC: 3.961 cumulative IPC: 3.96 (Simulation time: 00 hr 16 min 58 sec)
Heartbeat CPU 0 instructions: 520000001 cycles: 131317441 heartbeat IPC: 3.959 cumulative IPC: 3.96 (Simulation time: 00 hr 17 min 16 sec)
Heartbeat CPU 0 instructions: 530000001 cycles: 133835298 heartbeat IPC: 3.972 cumulative IPC: 3.96 (Simulation time: 00 hr 17 min 34 sec)
Heartbeat CPU 0 instructions: 540000003 cycles: 136351978 heartbeat IPC: 3.973 cumulative IPC: 3.96 (Simulation time: 00 hr 17 min 52 sec)
Heartbeat CPU 0 instructions: 550000003 cycles: 138867984 heartbeat IPC: 3.975 cumulative IPC: 3.961 (Simulation time: 00 hr 18 min 11 sec)
Heartbeat CPU 0 instructions: 560000003 cycles: 141384155 heartbeat IPC: 3.974 cumulative IPC: 3.961 (Simulation time: 00 hr 18 min 30 sec)
Heartbeat CPU 0 instructions: 570000003 cycles: 143900096 heartbeat IPC: 3.975 cumulative IPC: 3.961 (Simulation time: 00 hr 18 min 49 sec)
Heartbeat CPU 0 instructions: 580000003 cycles: 146415652 heartbeat IPC: 3.975 cumulative IPC: 3.961 (Simulation time: 00 hr 19 min 07 sec)
Heartbeat CPU 0 instructions: 590000001 cycles: 148930839 heartbeat IPC: 3.976 cumulative IPC: 3.962 (Simulation time: 00 hr 19 min 36 sec)
Heartbeat CPU 0 instructions: 600000001 cycles: 151444976 heartbeat IPC: 3.978 cumulative IPC: 3.962 (Simulation time: 00 hr 20 min 18 sec)
Heartbeat CPU 0 instructions: 610000001 cycles: 153959812 heartbeat IPC: 3.976 cumulative IPC: 3.962 (Simulation time: 00 hr 21 min 01 sec)
Heartbeat CPU 0 instructions: 620000001 cycles: 156474859 heartbeat IPC: 3.976 cumulative IPC: 3.962 (Simulation time: 00 hr 21 min 43 sec)
Heartbeat CPU 0 instructions: 630000001 cycles: 158990609 heartbeat IPC: 3.975 cumulative IPC: 3.962 (Simulation time: 00 hr 22 min 25 sec)
Heartbeat CPU 0 instructions: 640000002 cycles: 161508264 heartbeat IPC: 3.972 cumulative IPC: 3.963 (Simulation time: 00 hr 23 min 07 sec)
Heartbeat CPU 0 instructions: 650000003 cycles: 164032247 heartbeat IPC: 3.962 cumulative IPC: 3.963 (Simulation time: 00 hr 23 min 49 sec)
Heartbeat CPU 0 instructions: 660000003 cycles: 166557278 heartbeat IPC: 3.96 cumulative IPC: 3.963 (Simulation time: 00 hr 24 min 31 sec)
Heartbeat CPU 0 instructions: 670000003 cycles: 169078727 heartbeat IPC: 3.966 cumulative IPC: 3.963 (Simulation time: 00 hr 25 min 13 sec)
Heartbeat CPU 0 instructions: 680000003 cycles: 171605409 heartbeat IPC: 3.958 cumulative IPC: 3.963 (Simulation time: 00 hr 25 min 54 sec)
Heartbeat CPU 0 instructions: 690000001 cycles: 174131507 heartbeat IPC: 3.959 cumulative IPC: 3.963 (Simulation time: 00 hr 26 min 36 sec)
Heartbeat CPU 0 instructions: 700000003 cycles: 176657954 heartbeat IPC: 3.958 cumulative IPC: 3.962 (Simulation time: 00 hr 27 min 18 sec)
Heartbeat CPU 0 instructions: 710000000 cycles: 179184681 heartbeat IPC: 3.958 cumulative IPC: 3.962 (Simulation time: 00 hr 27 min 59 sec)
Heartbeat CPU 0 instructions: 720000001 cycles: 181712588 heartbeat IPC: 3.956 cumulative IPC: 3.962 (Simulation time: 00 hr 28 min 41 sec)
Heartbeat CPU 0 instructions: 730000003 cycles: 184218142 heartbeat IPC: 3.991 cumulative IPC: 3.963 (Simulation time: 00 hr 29 min 25 sec)
Heartbeat CPU 0 instructions: 740000000 cycles: 186741133 heartbeat IPC: 3.964 cumulative IPC: 3.963 (Simulation time: 00 hr 30 min 07 sec)
Heartbeat CPU 0 instructions: 750000001 cycles: 189266451 heartbeat IPC: 3.96 cumulative IPC: 3.963 (Simulation time: 00 hr 30 min 28 sec)
Heartbeat CPU 0 instructions: 760000001 cycles: 191792705 heartbeat IPC: 3.958 cumulative IPC: 3.963 (Simulation time: 00 hr 30 min 46 sec)
Heartbeat CPU 0 instructions: 770000000 cycles: 194319785 heartbeat IPC: 3.957 cumulative IPC: 3.963 (Simulation time: 00 hr 31 min 05 sec)
Heartbeat CPU 0 instructions: 780000001 cycles: 196845538 heartbeat IPC: 3.959 cumulative IPC: 3.962 (Simulation time: 00 hr 31 min 24 sec)
Heartbeat CPU 0 instructions: 790000000 cycles: 199373277 heartbeat IPC: 3.956 cumulative IPC: 3.962 (Simulation time: 00 hr 31 min 43 sec)
Heartbeat CPU 0 instructions: 800000003 cycles: 201897340 heartbeat IPC: 3.962 cumulative IPC: 3.962 (Simulation time: 00 hr 32 min 03 sec)
Heartbeat CPU 0 instructions: 810000001 cycles: 204418239 heartbeat IPC: 3.967 cumulative IPC: 3.962 (Simulation time: 00 hr 32 min 22 sec)
Heartbeat CPU 0 instructions: 820000000 cycles: 206939061 heartbeat IPC: 3.967 cumulative IPC: 3.963 (Simulation time: 00 hr 32 min 40 sec)
Heartbeat CPU 0 instructions: 830000001 cycles: 209465290 heartbeat IPC: 3.958 cumulative IPC: 3.962 (Simulation time: 00 hr 32 min 58 sec)
Heartbeat CPU 0 instructions: 840000000 cycles: 211988831 heartbeat IPC: 3.963 cumulative IPC: 3.962 (Simulation time: 00 hr 33 min 16 sec)
Heartbeat CPU 0 instructions: 850000001 cycles: 214510532 heartbeat IPC: 3.966 cumulative IPC: 3.963 (Simulation time: 00 hr 33 min 36 sec)
Heartbeat CPU 0 instructions: 860000000 cycles: 217031484 heartbeat IPC: 3.967 cumulative IPC: 3.963 (Simulation time: 00 hr 33 min 59 sec)
Heartbeat CPU 0 instructions: 870000001 cycles: 219555297 heartbeat IPC: 3.962 cumulative IPC: 3.963 (Simulation time: 00 hr 34 min 18 sec)
Heartbeat CPU 0 instructions: 880000002 cycles: 222076950 heartbeat IPC: 3.966 cumulative IPC: 3.963 (Simulation time: 00 hr 34 min 36 sec)
Heartbeat CPU 0 instructions: 890000001 cycles: 224600333 heartbeat IPC: 3.963 cumulative IPC: 3.963 (Simulation time: 00 hr 34 min 54 sec)
Heartbeat CPU 0 instructions: 900000001 cycles: 227123683 heartbeat IPC: 3.963 cumulative IPC: 3.963 (Simulation time: 00 hr 35 min 12 sec)
Heartbeat CPU 0 instructions: 910000003 cycles: 229648029 heartbeat IPC: 3.961 cumulative IPC: 3.963 (Simulation time: 00 hr 35 min 31 sec)
Heartbeat CPU 0 instructions: 920000003 cycles: 232170594 heartbeat IPC: 3.964 cumulative IPC: 3.963 (Simulation time: 00 hr 35 min 49 sec)
Heartbeat CPU 0 instructions: 930000001 cycles: 234687931 heartbeat IPC: 3.972 cumulative IPC: 3.963 (Simulation time: 00 hr 36 min 07 sec)
Heartbeat CPU 0 instructions: 940000002 cycles: 237210371 heartbeat IPC: 3.964 cumulative IPC: 3.963 (Simulation time: 00 hr 36 min 26 sec)
Heartbeat CPU 0 instructions: 950000000 cycles: 239732479 heartbeat IPC: 3.965 cumulative IPC: 3.963 (Simulation time: 00 hr 36 min 44 sec)
Heartbeat CPU 0 instructions: 960000000 cycles: 242257142 heartbeat IPC: 3.961 cumulative IPC: 3.963 (Simulation time: 00 hr 37 min 02 sec)
Heartbeat CPU 0 instructions: 970000001 cycles: 244783070 heartbeat IPC: 3.959 cumulative IPC: 3.963 (Simulation time: 00 hr 37 min 20 sec)
Heartbeat CPU 0 instructions: 980000002 cycles: 247310415 heartbeat IPC: 3.957 cumulative IPC: 3.963 (Simulation time: 00 hr 37 min 39 sec)
Heartbeat CPU 0 instructions: 990000001 cycles: 249838738 heartbeat IPC: 3.955 cumulative IPC: 3.963 (Simulation time: 00 hr 37 min 57 sec)
Heartbeat CPU 0 instructions: 1000000002 cycles: 252365656 heartbeat IPC: 3.957 cumulative IPC: 3.963 (Simulation time: 00 hr 38 min 15 sec)
Warmup finished CPU 0 instructions: 1000000002 cycles: 252365657 cumulative IPC: 3.963 (Simulation time: 00 hr 38 min 15 sec)
Warmup complete CPU 0 instructions: 1000000002 cycles: 252365657 cumulative IPC: 3.963 (Simulation time: 00 hr 38 min 15 sec)
Heartbeat CPU 0 instructions: 1010000000 cycles: 257076347 heartbeat IPC: 2.123 cumulative IPC: 2.123 (Simulation time: 00 hr 38 min 44 sec)
Heartbeat CPU 0 instructions: 1020000004 cycles: 262426787 heartbeat IPC: 1.869 cumulative IPC: 1.988 (Simulation time: 00 hr 39 min 18 sec)
Heartbeat CPU 0 instructions: 1030000004 cycles: 266602020 heartbeat IPC: 2.395 cumulative IPC: 2.107 (Simulation time: 00 hr 39 min 43 sec)
Heartbeat CPU 0 instructions: 1040000003 cycles: 270751072 heartbeat IPC: 2.41 cumulative IPC: 2.176 (Simulation time: 00 hr 40 min 08 sec)
Heartbeat CPU 0 instructions: 1050000000 cycles: 274902373 heartbeat IPC: 2.409 cumulative IPC: 2.219 (Simulation time: 00 hr 40 min 32 sec)
Heartbeat CPU 0 instructions: 1060000002 cycles: 279132483 heartbeat IPC: 2.364 cumulative IPC: 2.242 (Simulation time: 00 hr 40 min 58 sec)
Heartbeat CPU 0 instructions: 1070000000 cycles: 283386590 heartbeat IPC: 2.351 cumulative IPC: 2.257 (Simulation time: 00 hr 41 min 23 sec)
Heartbeat CPU 0 instructions: 1080000000 cycles: 287684158 heartbeat IPC: 2.327 cumulative IPC: 2.265 (Simulation time: 00 hr 41 min 49 sec)
Heartbeat CPU 0 instructions: 1090000000 cycles: 291977293 heartbeat IPC: 2.329 cumulative IPC: 2.272 (Simulation time: 00 hr 42 min 16 sec)
Heartbeat CPU 0 instructions: 1100000001 cycles: 296237494 heartbeat IPC: 2.347 cumulative IPC: 2.279 (Simulation time: 00 hr 42 min 41 sec)
Heartbeat CPU 0 instructions: 1110000003 cycles: 300469534 heartbeat IPC: 2.363 cumulative IPC: 2.287 (Simulation time: 00 hr 43 min 10 sec)
Heartbeat CPU 0 instructions: 1120000002 cycles: 304682305 heartbeat IPC: 2.374 cumulative IPC: 2.294 (Simulation time: 00 hr 43 min 42 sec)
Heartbeat CPU 0 instructions: 1130000002 cycles: 308961025 heartbeat IPC: 2.337 cumulative IPC: 2.297 (Simulation time: 00 hr 44 min 07 sec)
Heartbeat CPU 0 instructions: 1140000001 cycles: 313155993 heartbeat IPC: 2.384 cumulative IPC: 2.303 (Simulation time: 00 hr 44 min 33 sec)
Heartbeat CPU 0 instructions: 1150000000 cycles: 317345964 heartbeat IPC: 2.387 cumulative IPC: 2.308 (Simulation time: 00 hr 44 min 57 sec)
Heartbeat CPU 0 instructions: 1160000000 cycles: 321575489 heartbeat IPC: 2.364 cumulative IPC: 2.312 (Simulation time: 00 hr 45 min 23 sec)
Heartbeat CPU 0 instructions: 1170000001 cycles: 325808399 heartbeat IPC: 2.362 cumulative IPC: 2.315 (Simulation time: 00 hr 45 min 48 sec)
Heartbeat CPU 0 instructions: 1180000000 cycles: 330044109 heartbeat IPC: 2.361 cumulative IPC: 2.317 (Simulation time: 00 hr 46 min 13 sec)
Heartbeat CPU 0 instructions: 1190000000 cycles: 334250466 heartbeat IPC: 2.377 cumulative IPC: 2.32 (Simulation time: 00 hr 46 min 38 sec)
Heartbeat CPU 0 instructions: 1200000001 cycles: 338457964 heartbeat IPC: 2.377 cumulative IPC: 2.323 (Simulation time: 00 hr 47 min 03 sec)
Heartbeat CPU 0 instructions: 1210000001 cycles: 342619057 heartbeat IPC: 2.403 cumulative IPC: 2.327 (Simulation time: 00 hr 47 min 28 sec)
Heartbeat CPU 0 instructions: 1220000003 cycles: 346796729 heartbeat IPC: 2.394 cumulative IPC: 2.33 (Simulation time: 00 hr 47 min 53 sec)
Heartbeat CPU 0 instructions: 1230000001 cycles: 350996053 heartbeat IPC: 2.381 cumulative IPC: 2.332 (Simulation time: 00 hr 48 min 18 sec)
Heartbeat CPU 0 instructions: 1240000004 cycles: 355198765 heartbeat IPC: 2.379 cumulative IPC: 2.334 (Simulation time: 00 hr 48 min 43 sec)
Heartbeat CPU 0 instructions: 1250000001 cycles: 359485744 heartbeat IPC: 2.333 cumulative IPC: 2.334 (Simulation time: 00 hr 49 min 09 sec)
Heartbeat CPU 0 instructions: 1260000001 cycles: 363681841 heartbeat IPC: 2.383 cumulative IPC: 2.336 (Simulation time: 00 hr 49 min 34 sec)
Heartbeat CPU 0 instructions: 1270000002 cycles: 367877641 heartbeat IPC: 2.383 cumulative IPC: 2.337 (Simulation time: 00 hr 49 min 59 sec)
Heartbeat CPU 0 instructions: 1280000000 cycles: 372135481 heartbeat IPC: 2.349 cumulative IPC: 2.338 (Simulation time: 00 hr 50 min 26 sec)
Heartbeat CPU 0 instructions: 1290000002 cycles: 376348183 heartbeat IPC: 2.374 cumulative IPC: 2.339 (Simulation time: 00 hr 50 min 51 sec)
Heartbeat CPU 0 instructions: 1300000000 cycles: 380579744 heartbeat IPC: 2.363 cumulative IPC: 2.34 (Simulation time: 00 hr 51 min 17 sec)
Heartbeat CPU 0 instructions: 1310000003 cycles: 384728387 heartbeat IPC: 2.41 cumulative IPC: 2.342 (Simulation time: 00 hr 51 min 43 sec)
Heartbeat CPU 0 instructions: 1320000003 cycles: 388918351 heartbeat IPC: 2.387 cumulative IPC: 2.343 (Simulation time: 00 hr 52 min 08 sec)
Heartbeat CPU 0 instructions: 1330000002 cycles: 393082139 heartbeat IPC: 2.402 cumulative IPC: 2.345 (Simulation time: 00 hr 52 min 33 sec)
Heartbeat CPU 0 instructions: 1340000004 cycles: 397216933 heartbeat IPC: 2.419 cumulative IPC: 2.347 (Simulation time: 00 hr 52 min 57 sec)
Heartbeat CPU 0 instructions: 1350000002 cycles: 401351620 heartbeat IPC: 2.419 cumulative IPC: 2.349 (Simulation time: 00 hr 53 min 23 sec)
Heartbeat CPU 0 instructions: 1360000004 cycles: 406257859 heartbeat IPC: 2.038 cumulative IPC: 2.339 (Simulation time: 00 hr 53 min 54 sec)
Heartbeat CPU 0 instructions: 1370000004 cycles: 411318774 heartbeat IPC: 1.976 cumulative IPC: 2.328 (Simulation time: 00 hr 54 min 25 sec)
Heartbeat CPU 0 instructions: 1380000000 cycles: 415474322 heartbeat IPC: 2.406 cumulative IPC: 2.33 (Simulation time: 00 hr 54 min 49 sec)
Heartbeat CPU 0 instructions: 1390000002 cycles: 419671081 heartbeat IPC: 2.383 cumulative IPC: 2.331 (Simulation time: 00 hr 55 min 13 sec)
Heartbeat CPU 0 instructions: 1400000000 cycles: 423825042 heartbeat IPC: 2.407 cumulative IPC: 2.333 (Simulation time: 00 hr 55 min 38 sec)
Heartbeat CPU 0 instructions: 1410000004 cycles: 428010275 heartbeat IPC: 2.389 cumulative IPC: 2.334 (Simulation time: 00 hr 56 min 03 sec)
Heartbeat CPU 0 instructions: 1420000002 cycles: 432119179 heartbeat IPC: 2.434 cumulative IPC: 2.337 (Simulation time: 00 hr 56 min 26 sec)
Heartbeat CPU 0 instructions: 1430000002 cycles: 436242372 heartbeat IPC: 2.425 cumulative IPC: 2.339 (Simulation time: 00 hr 56 min 50 sec)
Heartbeat CPU 0 instructions: 1440000000 cycles: 440387069 heartbeat IPC: 2.413 cumulative IPC: 2.34 (Simulation time: 00 hr 57 min 14 sec)
Heartbeat CPU 0 instructions: 1450000002 cycles: 444631965 heartbeat IPC: 2.356 cumulative IPC: 2.341 (Simulation time: 00 hr 57 min 39 sec)
Heartbeat CPU 0 instructions: 1460000003 cycles: 448835837 heartbeat IPC: 2.379 cumulative IPC: 2.341 (Simulation time: 00 hr 58 min 03 sec)
Heartbeat CPU 0 instructions: 1470000000 cycles: 453094808 heartbeat IPC: 2.348 cumulative IPC: 2.341 (Simulation time: 00 hr 58 min 27 sec)
Heartbeat CPU 0 instructions: 1480000000 cycles: 457437371 heartbeat IPC: 2.303 cumulative IPC: 2.341 (Simulation time: 00 hr 58 min 53 sec)
Heartbeat CPU 0 instructions: 1490000002 cycles: 461635957 heartbeat IPC: 2.382 cumulative IPC: 2.341 (Simulation time: 00 hr 59 min 17 sec)
Heartbeat CPU 0 instructions: 1500000000 cycles: 465875773 heartbeat IPC: 2.359 cumulative IPC: 2.342 (Simulation time: 00 hr 59 min 42 sec)
Simulation finished CPU 0 instructions: 500000003 cycles: 213510118 cumulative IPC: 2.342 (Simulation time: 00 hr 59 min 42 sec)
Simulation complete CPU 0 instructions: 500000003 cycles: 213510118 cumulative IPC: 2.342 (Simulation time: 00 hr 59 min 42 sec)

ChampSim completed all CPUs

=== Simulation ===
CPU 0 runs traces/603.bwaves_s-1080B.champsimtrace.xz
Region of Interest Statistics

CPU 0 cumulative IPC: 2.342 instructions: 500000003 cycles: 213510118
CPU 0 Branch Prediction Accuracy: 90.54% MPKI: 13.73 Average ROB Occupancy at Mispredict: 28.23
Branch type MPKI
BRANCH_DIRECT_JUMP: 0.186
BRANCH_INDIRECT: 0
BRANCH_CONDITIONAL: 13.4
BRANCH_DIRECT_CALL: 0
BRANCH_INDIRECT_CALL: 0
BRANCH_RETURN: 0.131

LLC TOTAL        ACCESS:     328017 HIT:     155972 MISS:     172045
LLC LOAD         ACCESS:      15725 HIT:         12 MISS:      15713
LLC RFO          ACCESS:     156313 HIT:         15 MISS:     156298
LLC PREFETCH     ACCESS:          0 HIT:          0 MISS:          0
LLC WRITE        ACCESS:     155958 HIT:     155942 MISS:         16
LLC TRANSLATION  ACCESS:         21 HIT:          3 MISS:         18
LLC PREFETCH REQUESTED:          0 ISSUED:          0 USEFUL:          0 USELESS:          0
LLC AVERAGE MISS LATENCY: 407.9 cycles
cpu0_DTLB TOTAL        ACCESS:   82108063 HIT:   82084188 MISS:      23875
cpu0_DTLB LOAD         ACCESS:   82108063 HIT:   82084188 MISS:      23875
cpu0_DTLB RFO          ACCESS:          0 HIT:          0 MISS:          0
cpu0_DTLB PREFETCH     ACCESS:          0 HIT:          0 MISS:          0
cpu0_DTLB WRITE        ACCESS:          0 HIT:          0 MISS:          0
cpu0_DTLB TRANSLATION  ACCESS:          0 HIT:          0 MISS:          0
cpu0_DTLB PREFETCH REQUESTED:          0 ISSUED:          0 USEFUL:          0 USELESS:          0
cpu0_DTLB AVERAGE MISS LATENCY: 19.71 cycles
cpu0_ITLB TOTAL        ACCESS:    1892812 HIT:    1892812 MISS:          0
cpu0_ITLB LOAD         ACCESS:    1892812 HIT:    1892812 MISS:          0
cpu0_ITLB RFO          ACCESS:          0 HIT:          0 MISS:          0
cpu0_ITLB PREFETCH     ACCESS:          0 HIT:          0 MISS:          0
cpu0_ITLB WRITE        ACCESS:          0 HIT:          0 MISS:          0
cpu0_ITLB TRANSLATION  ACCESS:          0 HIT:          0 MISS:          0
cpu0_ITLB PREFETCH REQUESTED:          0 ISSUED:          0 USEFUL:          0 USELESS:          0
cpu0_ITLB AVERAGE MISS LATENCY: -nan cycles
cpu0_L1D TOTAL        ACCESS:  126604730 HIT:  125412851 MISS:    1191879
cpu0_L1D LOAD         ACCESS:  105484328 HIT:  105440832 MISS:      43496
cpu0_L1D RFO          ACCESS:          0 HIT:          0 MISS:          0
cpu0_L1D PREFETCH     ACCESS:          0 HIT:          0 MISS:          0
cpu0_L1D WRITE        ACCESS:   21117706 HIT:   19969588 MISS:    1148118
cpu0_L1D TRANSLATION  ACCESS:       2696 HIT:       2431 MISS:        265
cpu0_L1D PREFETCH REQUESTED:          0 ISSUED:          0 USEFUL:          0 USELESS:          0
cpu0_L1D AVERAGE MISS LATENCY: 59.13 cycles
cpu0_L1I TOTAL        ACCESS:    2191339 HIT:    2191339 MISS:          0
cpu0_L1I LOAD         ACCESS:    2191339 HIT:    2191339 MISS:          0
cpu0_L1I RFO          ACCESS:          0 HIT:          0 MISS:          0
cpu0_L1I PREFETCH     ACCESS:          0 HIT:          0 MISS:          0
cpu0_L1I WRITE        ACCESS:          0 HIT:          0 MISS:          0
cpu0_L1I TRANSLATION  ACCESS:          0 HIT:          0 MISS:          0
cpu0_L1I PREFETCH REQUESTED:          0 ISSUED:          0 USEFUL:          0 USELESS:          0
cpu0_L1I AVERAGE MISS LATENCY: -nan cycles
cpu0_L2C TOTAL        ACCESS:     331516 HIT:     159442 MISS:     172074
cpu0_L2C LOAD         ACCESS:      16922 HIT:       1197 MISS:      15725
cpu0_L2C RFO          ACCESS:     157506 HIT:       1193 MISS:     156313
cpu0_L2C PREFETCH     ACCESS:          0 HIT:          0 MISS:          0
cpu0_L2C WRITE        ACCESS:     156823 HIT:     156808 MISS:         15
cpu0_L2C TRANSLATION  ACCESS:        265 HIT:        244 MISS:         21
cpu0_L2C PREFETCH REQUESTED:          0 ISSUED:          0 USEFUL:          0 USELESS:          0
cpu0_L2C AVERAGE MISS LATENCY: 428.8 cycles
cpu0_STLB TOTAL        ACCESS:       2815 HIT:        124 MISS:       2691
cpu0_STLB LOAD         ACCESS:       2815 HIT:        124 MISS:       2691
cpu0_STLB RFO          ACCESS:          0 HIT:          0 MISS:          0
cpu0_STLB PREFETCH     ACCESS:          0 HIT:          0 MISS:          0
cpu0_STLB WRITE        ACCESS:          0 HIT:          0 MISS:          0
cpu0_STLB TRANSLATION  ACCESS:          0 HIT:          0 MISS:          0
cpu0_STLB PREFETCH REQUESTED:          0 ISSUED:          0 USEFUL:          0 USELESS:          0
cpu0_STLB AVERAGE MISS LATENCY: 209.7 cycles

DRAM Statistics

Channel 0 RQ ROW_BUFFER_HIT:      58979
  ROW_BUFFER_MISS:     113050
 AVG DBUS CONGESTED CYCLE: 3.931
WQ ROW_BUFFER_HIT: Channel 0 
  ROW_BUFFER_MISS:      53893
  FULL:     102107
