WARNING: physical memory size is smaller than virtual memory size.

*** ChampSim Multicore Out-of-Order Simulator ***
Warmup Instructions: 1000000000
Simulation Instructions: 500000000
Number of CPUs: 1
Page size: 4096

Off-chip DRAM Size: 4 GiB Channels: 1 Width: 64-bit Data Race: 3200 MT/s
Heartbeat CPU 0 instructions: 10000002 cycles: 2520182 heartbeat IPC: 3.968 cumulative IPC: 3.968 (Simulation time: 00 hr 00 min 18 sec)
Heartbeat CPU 0 instructions: 20000002 cycles: 5033710 heartbeat IPC: 3.978 cumulative IPC: 3.973 (Simulation time: 00 hr 00 min 36 sec)
Heartbeat CPU 0 instructions: 30000000 cycles: 7564260 heartbeat IPC: 3.952 cumulative IPC: 3.966 (Simulation time: 00 hr 00 min 54 sec)
Heartbeat CPU 0 instructions: 40000001 cycles: 10094553 heartbeat IPC: 3.952 cumulative IPC: 3.963 (Simulation time: 00 hr 01 min 12 sec)
Heartbeat CPU 0 instructions: 50000000 cycles: 12622793 heartbeat IPC: 3.955 cumulative IPC: 3.961 (Simulation time: 00 hr 01 min 30 sec)
Heartbeat CPU 0 instructions: 60000000 cycles: 15155011 heartbeat IPC: 3.949 cumulative IPC: 3.959 (Simulation time: 00 hr 01 min 47 sec)
Heartbeat CPU 0 instructions: 70000001 cycles: 17685642 heartbeat IPC: 3.952 cumulative IPC: 3.958 (Simulation time: 00 hr 02 min 05 sec)
Heartbeat CPU 0 instructions: 80000001 cycles: 20217562 heartbeat IPC: 3.95 cumulative IPC: 3.957 (Simulation time: 00 hr 02 min 23 sec)
Heartbeat CPU 0 instructions: 90000003 cycles: 22749572 heartbeat IPC: 3.949 cumulative IPC: 3.956 (Simulation time: 00 hr 02 min 41 sec)
Heartbeat CPU 0 instructions: 100000003 cycles: 25280991 heartbeat IPC: 3.95 cumulative IPC: 3.956 (Simulation time: 00 hr 02 min 59 sec)
Heartbeat CPU 0 instructions: 110000003 cycles: 27813135 heartbeat IPC: 3.949 cumulative IPC: 3.955 (Simulation time: 00 hr 03 min 16 sec)
Heartbeat CPU 0 instructions: 120000003 cycles: 30345851 heartbeat IPC: 3.948 cumulative IPC: 3.954 (Simulation time: 00 hr 03 min 34 sec)
Heartbeat CPU 0 instructions: 130000002 cycles: 32878845 heartbeat IPC: 3.948 cumulative IPC: 3.954 (Simulation time: 00 hr 03 min 52 sec)
Heartbeat CPU 0 instructions: 140000000 cycles: 35411537 heartbeat IPC: 3.948 cumulative IPC: 3.954 (Simulation time: 00 hr 04 min 09 sec)
Heartbeat CPU 0 instructions: 150000001 cycles: 37942990 heartbeat IPC: 3.95 cumulative IPC: 3.953 (Simulation time: 00 hr 04 min 27 sec)
Heartbeat CPU 0 instructions: 160000000 cycles: 40474803 heartbeat IPC: 3.95 cumulative IPC: 3.953 (Simulation time: 00 hr 04 min 45 sec)
Heartbeat CPU 0 instructions: 170000003 cycles: 43005569 heartbeat IPC: 3.951 cumulative IPC: 3.953 (Simulation time: 00 hr 05 min 03 sec)
Heartbeat CPU 0 instructions: 180000003 cycles: 45537349 heartbeat IPC: 3.95 cumulative IPC: 3.953 (Simulation time: 00 hr 05 min 21 sec)
Heartbeat CPU 0 instructions: 190000002 cycles: 48068399 heartbeat IPC: 3.951 cumulative IPC: 3.953 (Simulation time: 00 hr 05 min 39 sec)
Heartbeat CPU 0 instructions: 200000001 cycles: 50599313 heartbeat IPC: 3.951 cumulative IPC: 3.953 (Simulation time: 00 hr 05 min 57 sec)
Heartbeat CPU 0 instructions: 210000002 cycles: 53130978 heartbeat IPC: 3.95 cumulative IPC: 3.952 (Simulation time: 00 hr 06 min 15 sec)
Heartbeat CPU 0 instructions: 220000002 cycles: 55661723 heartbeat IPC: 3.951 cumulative IPC: 3.952 (Simulation time: 00 hr 06 min 32 sec)
Heartbeat CPU 0 instructions: 230000000 cycles: 58193277 heartbeat IPC: 3.95 cumulative IPC: 3.952 (Simulation time: 00 hr 06 min 50 sec)
Heartbeat CPU 0 instructions: 240000003 cycles: 60724421 heartbeat IPC: 3.951 cumulative IPC: 3.952 (Simulation time: 00 hr 07 min 08 sec)
Heartbeat CPU 0 instructions: 250000002 cycles: 63255481 heartbeat IPC: 3.951 cumulative IPC: 3.952 (Simulation time: 00 hr 07 min 26 sec)
Heartbeat CPU 0 instructions: 260000003 cycles: 65786890 heartbeat IPC: 3.95 cumulative IPC: 3.952 (Simulation time: 00 hr 07 min 44 sec)
Heartbeat CPU 0 instructions: 270000002 cycles: 68317848 heartbeat IPC: 3.951 cumulative IPC: 3.952 (Simulation time: 00 hr 08 min 02 sec)
Heartbeat CPU 0 instructions: 280000001 cycles: 70849104 heartbeat IPC: 3.951 cumulative IPC: 3.952 (Simulation time: 00 hr 08 min 19 sec)
Heartbeat CPU 0 instructions: 290000001 cycles: 73381804 heartbeat IPC: 3.948 cumulative IPC: 3.952 (Simulation time: 00 hr 08 min 37 sec)
Heartbeat CPU 0 instructions: 300000000 cycles: 75912846 heartbeat IPC: 3.951 cumulative IPC: 3.952 (Simulation time: 00 hr 08 min 55 sec)
Heartbeat CPU 0 instructions: 310000000 cycles: 78444164 heartbeat IPC: 3.951 cumulative IPC: 3.952 (Simulation time: 00 hr 09 min 13 sec)
Heartbeat CPU 0 instructions: 320000002 cycles: 80976947 heartbeat IPC: 3.948 cumulative IPC: 3.952 (Simulation time: 00 hr 09 min 31 sec)
Heartbeat CPU 0 instructions: 330000001 cycles: 83510628 heartbeat IPC: 3.947 cumulative IPC: 3.952 (Simulation time: 00 hr 09 min 49 sec)
Heartbeat CPU 0 instructions: 340000001 cycles: 86044402 heartbeat IPC: 3.947 cumulative IPC: 3.951 (Simulation time: 00 hr 10 min 06 sec)
Heartbeat CPU 0 instructions: 350000000 cycles: 88579175 heartbeat IPC: 3.945 cumulative IPC: 3.951 (Simulation time: 00 hr 10 min 24 sec)
Heartbeat CPU 0 instructions: 360000001 cycles: 91114457 heartbeat IPC: 3.944 cumulative IPC: 3.951 (Simulation time: 00 hr 10 min 47 sec)
Heartbeat CPU 0 instructions: 370000002 cycles: 93649184 heartbeat IPC: 3.945 cumulative IPC: 3.951 (Simulation time: 00 hr 11 min 21 sec)
Heartbeat CPU 0 instructions: 380000000 cycles: 96183372 heartbeat IPC: 3.946 cumulative IPC: 3.951 (Simulation time: 00 hr 11 min 50 sec)
Heartbeat CPU 0 instructions: 390000000 cycles: 98716384 heartbeat IPC: 3.948 cumulative IPC: 3.951 (Simulation time: 00 hr 12 min 11 sec)
Heartbeat CPU 0 instructions: 400000003 cycles: 101249012 heartbeat IPC: 3.948 cumulative IPC: 3.951 (Simulation time: 00 hr 12 min 31 sec)
Heartbeat CPU 0 instructions: 410000002 cycles: 103781314 heartbeat IPC: 3.949 cumulative IPC: 3.951 (Simulation time: 00 hr 12 min 49 sec)
Heartbeat CPU 0 instructions: 420000004 cycles: 106313831 heartbeat IPC: 3.949 cumulative IPC: 3.951 (Simulation time: 00 hr 13 min 10 sec)
Heartbeat CPU 0 instructions: 430000001 cycles: 108844741 heartbeat IPC: 3.951 cumulative IPC: 3.951 (Simulation time: 00 hr 13 min 28 sec)
Heartbeat CPU 0 instructions: 440000003 cycles: 111373046 heartbeat IPC: 3.955 cumulative IPC: 3.951 (Simulation time: 00 hr 13 min 46 sec)
Heartbeat CPU 0 instructions: 450000004 cycles: 113902845 heartbeat IPC: 3.953 cumulative IPC: 3.951 (Simulation time: 00 hr 14 min 04 sec)
Heartbeat CPU 0 instructions: 460000001 cycles: 116433305 heartbeat IPC: 3.952 cumulative IPC: 3.951 (Simulation time: 00 hr 14 min 23 sec)
Heartbeat CPU 0 instructions: 470000003 cycles: 118943667 heartbeat IPC: 3.983 cumulative IPC: 3.951 (Simulation time: 00 hr 14 min 43 sec)
Heartbeat CPU 0 instructions: 480000002 cycles: 121469592 heartbeat IPC: 3.959 cumulative IPC: 3.952 (Simulation time: 00 hr 15 min 02 sec)
Heartbeat CPU 0 instructions: 490000001 cycles: 124001842 heartbeat IPC: 3.949 cumulative IPC: 3.952 (Simulation time: 00 hr 15 min 36 sec)
Heartbeat CPU 0 instructions: 500000003 cycles: 126534339 heartbeat IPC: 3.949 cumulative IPC: 3.951 (Simulation time: 00 hr 16 min 10 sec)
Heartbeat CPU 0 instructions: 510000003 cycles: 129065127 heartbeat IPC: 3.951 cumulative IPC: 3.951 (Simulation time: 00 hr 16 min 44 sec)
Heartbeat CPU 0 instructions: 520000001 cycles: 131595223 heartbeat IPC: 3.952 cumulative IPC: 3.952 (Simulation time: 00 hr 17 min 18 sec)
Heartbeat CPU 0 instructions: 530000001 cycles: 134115238 heartbeat IPC: 3.968 cumulative IPC: 3.952 (Simulation time: 00 hr 17 min 52 sec)
Heartbeat CPU 0 instructions: 540000003 cycles: 136633914 heartbeat IPC: 3.97 cumulative IPC: 3.952 (Simulation time: 00 hr 18 min 27 sec)
Heartbeat CPU 0 instructions: 550000003 cycles: 139152680 heartbeat IPC: 3.97 cumulative IPC: 3.952 (Simulation time: 00 hr 19 min 01 sec)
Heartbeat CPU 0 instructions: 560000003 cycles: 141671693 heartbeat IPC: 3.97 cumulative IPC: 3.953 (Simulation time: 00 hr 19 min 35 sec)
Heartbeat CPU 0 instructions: 570000003 cycles: 144190439 heartbeat IPC: 3.97 cumulative IPC: 3.953 (Simulation time: 00 hr 20 min 09 sec)
Heartbeat CPU 0 instructions: 580000003 cycles: 146709215 heartbeat IPC: 3.97 cumulative IPC: 3.953 (Simulation time: 00 hr 20 min 44 sec)
Heartbeat CPU 0 instructions: 590000001 cycles: 149227381 heartbeat IPC: 3.971 cumulative IPC: 3.954 (Simulation time: 00 hr 21 min 18 sec)
Heartbeat CPU 0 instructions: 600000001 cycles: 151745186 heartbeat IPC: 3.972 cumulative IPC: 3.954 (Simulation time: 00 hr 21 min 52 sec)
Heartbeat CPU 0 instructions: 610000001 cycles: 154262987 heartbeat IPC: 3.972 cumulative IPC: 3.954 (Simulation time: 00 hr 22 min 16 sec)
Heartbeat CPU 0 instructions: 620000001 cycles: 156780789 heartbeat IPC: 3.972 cumulative IPC: 3.955 (Simulation time: 00 hr 22 min 36 sec)
Heartbeat CPU 0 instructions: 630000001 cycles: 159298592 heartbeat IPC: 3.972 cumulative IPC: 3.955 (Simulation time: 00 hr 22 min 55 sec)
Heartbeat CPU 0 instructions: 640000002 cycles: 161818120 heartbeat IPC: 3.969 cumulative IPC: 3.955 (Simulation time: 00 hr 23 min 14 sec)
Heartbeat CPU 0 instructions: 650000003 cycles: 164347864 heartbeat IPC: 3.953 cumulative IPC: 3.955 (Simulation time: 00 hr 23 min 32 sec)
Heartbeat CPU 0 instructions: 660000003 cycles: 166878911 heartbeat IPC: 3.951 cumulative IPC: 3.955 (Simulation time: 00 hr 23 min 50 sec)
Heartbeat CPU 0 instructions: 670000003 cycles: 169404859 heartbeat IPC: 3.959 cumulative IPC: 3.955 (Simulation time: 00 hr 24 min 20 sec)
Heartbeat CPU 0 instructions: 680000003 cycles: 171936906 heartbeat IPC: 3.949 cumulative IPC: 3.955 (Simulation time: 00 hr 24 min 53 sec)
Heartbeat CPU 0 instructions: 690000001 cycles: 174469335 heartbeat IPC: 3.949 cumulative IPC: 3.955 (Simulation time: 00 hr 25 min 26 sec)
Heartbeat CPU 0 instructions: 700000003 cycles: 177001793 heartbeat IPC: 3.949 cumulative IPC: 3.955 (Simulation time: 00 hr 25 min 59 sec)
Heartbeat CPU 0 instructions: 710000000 cycles: 179534164 heartbeat IPC: 3.949 cumulative IPC: 3.955 (Simulation time: 00 hr 26 min 32 sec)
Heartbeat CPU 0 instructions: 720000001 cycles: 182064780 heartbeat IPC: 3.952 cumulative IPC: 3.955 (Simulation time: 00 hr 27 min 05 sec)
Heartbeat CPU 0 instructions: 730000003 cycles: 184571513 heartbeat IPC: 3.989 cumulative IPC: 3.955 (Simulation time: 00 hr 27 min 41 sec)
Heartbeat CPU 0 instructions: 740000000 cycles: 187099741 heartbeat IPC: 3.955 cumulative IPC: 3.955 (Simulation time: 00 hr 28 min 15 sec)
Heartbeat CPU 0 instructions: 750000001 cycles: 189632716 heartbeat IPC: 3.948 cumulative IPC: 3.955 (Simulation time: 00 hr 28 min 48 sec)
Heartbeat CPU 0 instructions: 760000001 cycles: 192165407 heartbeat IPC: 3.948 cumulative IPC: 3.955 (Simulation time: 00 hr 29 min 21 sec)
Heartbeat CPU 0 instructions: 770000000 cycles: 194699833 heartbeat IPC: 3.946 cumulative IPC: 3.955 (Simulation time: 00 hr 29 min 54 sec)
Heartbeat CPU 0 instructions: 780000001 cycles: 197232900 heartbeat IPC: 3.948 cumulative IPC: 3.955 (Simulation time: 00 hr 30 min 27 sec)
Heartbeat CPU 0 instructions: 790000000 cycles: 199766208 heartbeat IPC: 3.947 cumulative IPC: 3.955 (Simulation time: 00 hr 31 min 00 sec)
Heartbeat CPU 0 instructions: 800000003 cycles: 202294688 heartbeat IPC: 3.955 cumulative IPC: 3.955 (Simulation time: 00 hr 31 min 34 sec)
Heartbeat CPU 0 instructions: 810000001 cycles: 204819617 heartbeat IPC: 3.961 cumulative IPC: 3.955 (Simulation time: 00 hr 32 min 07 sec)
Heartbeat CPU 0 instructions: 820000000 cycles: 207343486 heartbeat IPC: 3.962 cumulative IPC: 3.955 (Simulation time: 00 hr 32 min 41 sec)
Heartbeat CPU 0 instructions: 830000001 cycles: 209871774 heartbeat IPC: 3.955 cumulative IPC: 3.955 (Simulation time: 00 hr 33 min 14 sec)
Heartbeat CPU 0 instructions: 840000000 cycles: 212400017 heartbeat IPC: 3.955 cumulative IPC: 3.955 (Simulation time: 00 hr 33 min 47 sec)
Heartbeat CPU 0 instructions: 850000001 cycles: 214928307 heartbeat IPC: 3.955 cumulative IPC: 3.955 (Simulation time: 00 hr 34 min 21 sec)
Heartbeat CPU 0 instructions: 860000000 cycles: 217456588 heartbeat IPC: 3.955 cumulative IPC: 3.955 (Simulation time: 00 hr 34 min 54 sec)
Heartbeat CPU 0 instructions: 870000001 cycles: 219984887 heartbeat IPC: 3.955 cumulative IPC: 3.955 (Simulation time: 00 hr 35 min 28 sec)
Heartbeat CPU 0 instructions: 880000002 cycles: 222513200 heartbeat IPC: 3.955 cumulative IPC: 3.955 (Simulation time: 00 hr 36 min 01 sec)
Heartbeat CPU 0 instructions: 890000001 cycles: 225041453 heartbeat IPC: 3.955 cumulative IPC: 3.955 (Simulation time: 00 hr 36 min 34 sec)
Heartbeat CPU 0 instructions: 900000001 cycles: 227569681 heartbeat IPC: 3.955 cumulative IPC: 3.955 (Simulation time: 00 hr 37 min 08 sec)
Heartbeat CPU 0 instructions: 910000003 cycles: 230097928 heartbeat IPC: 3.955 cumulative IPC: 3.955 (Simulation time: 00 hr 37 min 41 sec)
Heartbeat CPU 0 instructions: 920000002 cycles: 232626171 heartbeat IPC: 3.955 cumulative IPC: 3.955 (Simulation time: 00 hr 38 min 14 sec)
Heartbeat CPU 0 instructions: 930000001 cycles: 235147591 heartbeat IPC: 3.966 cumulative IPC: 3.955 (Simulation time: 00 hr 38 min 48 sec)
Heartbeat CPU 0 instructions: 940000000 cycles: 237676116 heartbeat IPC: 3.955 cumulative IPC: 3.955 (Simulation time: 00 hr 39 min 21 sec)
Heartbeat CPU 0 instructions: 950000000 cycles: 240203498 heartbeat IPC: 3.957 cumulative IPC: 3.955 (Simulation time: 00 hr 39 min 43 sec)
Heartbeat CPU 0 instructions: 960000000 cycles: 242732261 heartbeat IPC: 3.955 cumulative IPC: 3.955 (Simulation time: 00 hr 40 min 01 sec)
Heartbeat CPU 0 instructions: 970000001 cycles: 245264457 heartbeat IPC: 3.949 cumulative IPC: 3.955 (Simulation time: 00 hr 40 min 19 sec)
Heartbeat CPU 0 instructions: 980000002 cycles: 247797098 heartbeat IPC: 3.948 cumulative IPC: 3.955 (Simulation time: 00 hr 40 min 37 sec)
Heartbeat CPU 0 instructions: 990000001 cycles: 250330031 heartbeat IPC: 3.948 cumulative IPC: 3.955 (Simulation time: 00 hr 40 min 55 sec)
Heartbeat CPU 0 instructions: 1000000002 cycles: 252862822 heartbeat IPC: 3.948 cumulative IPC: 3.955 (Simulation time: 00 hr 41 min 13 sec)
Warmup finished CPU 0 instructions: 1000000002 cycles: 252862823 cumulative IPC: 3.955 (Simulation time: 00 hr 41 min 13 sec)
Warmup complete CPU 0 instructions: 1000000002 cycles: 252862823 cumulative IPC: 3.955 (Simulation time: 00 hr 41 min 13 sec)
Heartbeat CPU 0 instructions: 1010000002 cycles: 256544198 heartbeat IPC: 2.716 cumulative IPC: 2.716 (Simulation time: 00 hr 41 min 39 sec)
Heartbeat CPU 0 instructions: 1020000001 cycles: 261308574 heartbeat IPC: 2.099 cumulative IPC: 2.368 (Simulation time: 00 hr 42 min 12 sec)
Heartbeat CPU 0 instructions: 1030000002 cycles: 264101693 heartbeat IPC: 3.58 cumulative IPC: 2.669 (Simulation time: 00 hr 42 min 33 sec)
Heartbeat CPU 0 instructions: 1040000003 cycles: 266892573 heartbeat IPC: 3.583 cumulative IPC: 2.851 (Simulation time: 00 hr 42 min 55 sec)
Heartbeat CPU 0 instructions: 1050000002 cycles: 269683636 heartbeat IPC: 3.583 cumulative IPC: 2.973 (Simulation time: 00 hr 43 min 16 sec)
Heartbeat CPU 0 instructions: 1060000003 cycles: 272587609 heartbeat IPC: 3.444 cumulative IPC: 3.042 (Simulation time: 00 hr 43 min 38 sec)
Heartbeat CPU 0 instructions: 1070000002 cycles: 275471303 heartbeat IPC: 3.468 cumulative IPC: 3.096 (Simulation time: 00 hr 44 min 00 sec)
Heartbeat CPU 0 instructions: 1080000001 cycles: 278356132 heartbeat IPC: 3.466 cumulative IPC: 3.138 (Simulation time: 00 hr 44 min 22 sec)
Heartbeat CPU 0 instructions: 1090000000 cycles: 281255524 heartbeat IPC: 3.449 cumulative IPC: 3.17 (Simulation time: 00 hr 44 min 45 sec)
Heartbeat CPU 0 instructions: 1100000001 cycles: 284137195 heartbeat IPC: 3.47 cumulative IPC: 3.198 (Simulation time: 00 hr 45 min 07 sec)
Heartbeat CPU 0 instructions: 1110000001 cycles: 287004692 heartbeat IPC: 3.487 cumulative IPC: 3.222 (Simulation time: 00 hr 45 min 28 sec)
Heartbeat CPU 0 instructions: 1120000003 cycles: 289876460 heartbeat IPC: 3.482 cumulative IPC: 3.242 (Simulation time: 00 hr 45 min 50 sec)
Heartbeat CPU 0 instructions: 1130000002 cycles: 292749389 heartbeat IPC: 3.481 cumulative IPC: 3.259 (Simulation time: 00 hr 46 min 12 sec)
Heartbeat CPU 0 instructions: 1140000003 cycles: 295605424 heartbeat IPC: 3.501 cumulative IPC: 3.275 (Simulation time: 00 hr 46 min 34 sec)
Heartbeat CPU 0 instructions: 1150000000 cycles: 298486880 heartbeat IPC: 3.47 cumulative IPC: 3.288 (Simulation time: 00 hr 46 min 56 sec)
Heartbeat CPU 0 instructions: 1160000000 cycles: 301355006 heartbeat IPC: 3.487 cumulative IPC: 3.3 (Simulation time: 00 hr 47 min 32 sec)
Heartbeat CPU 0 instructions: 1170000001 cycles: 304236578 heartbeat IPC: 3.47 cumulative IPC: 3.309 (Simulation time: 00 hr 48 min 13 sec)
Heartbeat CPU 0 instructions: 1180000000 cycles: 307104875 heartbeat IPC: 3.486 cumulative IPC: 3.318 (Simulation time: 00 hr 48 min 54 sec)
Heartbeat CPU 0 instructions: 1190000000 cycles: 309999301 heartbeat IPC: 3.455 cumulative IPC: 3.325 (Simulation time: 00 hr 49 min 34 sec)
Heartbeat CPU 0 instructions: 1200000004 cycles: 312868528 heartbeat IPC: 3.485 cumulative IPC: 3.333 (Simulation time: 00 hr 50 min 14 sec)
Heartbeat CPU 0 instructions: 1210000001 cycles: 315721450 heartbeat IPC: 3.505 cumulative IPC: 3.341 (Simulation time: 00 hr 50 min 54 sec)
Heartbeat CPU 0 instructions: 1220000000 cycles: 318593741 heartbeat IPC: 3.482 cumulative IPC: 3.347 (Simulation time: 00 hr 51 min 34 sec)
Heartbeat CPU 0 instructions: 1230000001 cycles: 321459830 heartbeat IPC: 3.489 cumulative IPC: 3.353 (Simulation time: 00 hr 52 min 13 sec)
Heartbeat CPU 0 instructions: 1240000004 cycles: 324336641 heartbeat IPC: 3.476 cumulative IPC: 3.358 (Simulation time: 00 hr 52 min 53 sec)
Heartbeat CPU 0 instructions: 1250000004 cycles: 327208572 heartbeat IPC: 3.482 cumulative IPC: 3.363 (Simulation time: 00 hr 53 min 34 sec)
Heartbeat CPU 0 instructions: 1260000001 cycles: 330071485 heartbeat IPC: 3.493 cumulative IPC: 3.367 (Simulation time: 00 hr 54 min 14 sec)
Heartbeat CPU 0 instructions: 1270000000 cycles: 332943835 heartbeat IPC: 3.481 cumulative IPC: 3.372 (Simulation time: 00 hr 54 min 54 sec)
Heartbeat CPU 0 instructions: 1280000000 cycles: 335818885 heartbeat IPC: 3.478 cumulative IPC: 3.375 (Simulation time: 00 hr 55 min 35 sec)
Heartbeat CPU 0 instructions: 1290000002 cycles: 338723873 heartbeat IPC: 3.442 cumulative IPC: 3.378 (Simulation time: 00 hr 56 min 16 sec)
Heartbeat CPU 0 instructions: 1300000004 cycles: 341611552 heartbeat IPC: 3.463 cumulative IPC: 3.38 (Simulation time: 00 hr 56 min 57 sec)
Heartbeat CPU 0 instructions: 1310000003 cycles: 344476412 heartbeat IPC: 3.491 cumulative IPC: 3.384 (Simulation time: 00 hr 57 min 37 sec)
Heartbeat CPU 0 instructions: 1320000000 cycles: 347395131 heartbeat IPC: 3.426 cumulative IPC: 3.385 (Simulation time: 00 hr 58 min 18 sec)
Heartbeat CPU 0 instructions: 1330000000 cycles: 350194082 heartbeat IPC: 3.573 cumulative IPC: 3.39 (Simulation time: 00 hr 58 min 58 sec)
Heartbeat CPU 0 instructions: 1340000004 cycles: 352984546 heartbeat IPC: 3.584 cumulative IPC: 3.396 (Simulation time: 00 hr 59 min 37 sec)
Heartbeat CPU 0 instructions: 1350000000 cycles: 355777265 heartbeat IPC: 3.581 cumulative IPC: 3.401 (Simulation time: 00 hr 59 min 59 sec)
Heartbeat CPU 0 instructions: 1360000004 cycles: 359812721 heartbeat IPC: 2.478 cumulative IPC: 3.366 (Simulation time: 01 hr 00 min 28 sec)
Heartbeat CPU 0 instructions: 1370000004 cycles: 364129595 heartbeat IPC: 2.316 cumulative IPC: 3.325 (Simulation time: 01 hr 01 min 16 sec)
Heartbeat CPU 0 instructions: 1380000000 cycles: 366948426 heartbeat IPC: 3.548 cumulative IPC: 3.331 (Simulation time: 01 hr 01 min 56 sec)
Heartbeat CPU 0 instructions: 1390000002 cycles: 369782501 heartbeat IPC: 3.528 cumulative IPC: 3.336 (Simulation time: 01 hr 02 min 36 sec)
Heartbeat CPU 0 instructions: 1400000004 cycles: 372608593 heartbeat IPC: 3.538 cumulative IPC: 3.34 (Simulation time: 01 hr 03 min 16 sec)
Heartbeat CPU 0 instructions: 1410000004 cycles: 375452388 heartbeat IPC: 3.516 cumulative IPC: 3.344 (Simulation time: 01 hr 03 min 56 sec)
Heartbeat CPU 0 instructions: 1420000002 cycles: 378265692 heartbeat IPC: 3.555 cumulative IPC: 3.349 (Simulation time: 01 hr 04 min 36 sec)
Heartbeat CPU 0 instructions: 1430000000 cycles: 381079615 heartbeat IPC: 3.554 cumulative IPC: 3.354 (Simulation time: 01 hr 05 min 15 sec)
Heartbeat CPU 0 instructions: 1440000000 cycles: 383891401 heartbeat IPC: 3.556 cumulative IPC: 3.358 (Simulation time: 01 hr 05 min 55 sec)
Heartbeat CPU 0 instructions: 1450000002 cycles: 386763619 heartbeat IPC: 3.482 cumulative IPC: 3.361 (Simulation time: 01 hr 06 min 35 sec)
Heartbeat CPU 0 instructions: 1460000003 cycles: 389598628 heartbeat IPC: 3.527 cumulative IPC: 3.364 (Simulation time: 01 hr 06 min 57 sec)
Heartbeat CPU 0 instructions: 1470000000 cycles: 392480015 heartbeat IPC: 3.471 cumulative IPC: 3.366 (Simulation time: 01 hr 07 min 18 sec)
Heartbeat CPU 0 instructions: 1480000000 cycles: 395403987 heartbeat IPC: 3.42 cumulative IPC: 3.367 (Simulation time: 01 hr 07 min 40 sec)
Heartbeat CPU 0 instructions: 1490000000 cycles: 398253209 heartbeat IPC: 3.51 cumulative IPC: 3.37 (Simulation time: 01 hr 08 min 02 sec)
Heartbeat CPU 0 instructions: 1500000002 cycles: 401113919 heartbeat IPC: 3.496 cumulative IPC: 3.373 (Simulation time: 01 hr 08 min 23 sec)
Simulation finished CPU 0 instructions: 500000000 cycles: 148251097 cumulative IPC: 3.373 (Simulation time: 01 hr 08 min 23 sec)
Simulation complete CPU 0 instructions: 500000000 cycles: 148251097 cumulative IPC: 3.373 (Simulation time: 01 hr 08 min 23 sec)

ChampSim completed all CPUs

=== Simulation ===
CPU 0 runs traces/603.bwaves_s-1080B.champsimtrace.xz
Region of Interest Statistics

CPU 0 cumulative IPC: 3.373 instructions: 500000000 cycles: 148251097
CPU 0 Branch Prediction Accuracy: 98.66% MPKI: 1.943 Average ROB Occupancy at Mispredict: 89.84
Branch type MPKI
BRANCH_DIRECT_JUMP: 0.186
BRANCH_INDIRECT: 0
BRANCH_CONDITIONAL: 1.63
BRANCH_DIRECT_CALL: 0
BRANCH_INDIRECT_CALL: 0
BRANCH_RETURN: 0.131

LLC TOTAL        ACCESS:     328034 HIT:     155985 MISS:     172049
LLC LOAD         ACCESS:      15760 HIT:         15 MISS:      15745
LLC RFO          ACCESS:     156274 HIT:         14 MISS:     156260
LLC PREFETCH     ACCESS:          0 HIT:          0 MISS:          0
LLC WRITE        ACCESS:     155979 HIT:     155953 MISS:         26
LLC TRANSLATION  ACCESS:         21 HIT:          3 MISS:         18
LLC PREFETCH REQUESTED:          0 ISSUED:          0 USEFUL:          0 USELESS:          0
LLC AVERAGE MISS LATENCY: 407.9 cycles
cpu0_DTLB TOTAL        ACCESS:   81843319 HIT:   81819306 MISS:      24013
cpu0_DTLB LOAD         ACCESS:   81843319 HIT:   81819306 MISS:      24013
cpu0_DTLB RFO          ACCESS:          0 HIT:          0 MISS:          0
cpu0_DTLB PREFETCH     ACCESS:          0 HIT:          0 MISS:          0
cpu0_DTLB WRITE        ACCESS:          0 HIT:          0 MISS:          0
cpu0_DTLB TRANSLATION  ACCESS:          0 HIT:          0 MISS:          0
cpu0_DTLB PREFETCH REQUESTED:          0 ISSUED:          0 USEFUL:          0 USELESS:          0
cpu0_DTLB AVERAGE MISS LATENCY: 19.57 cycles
cpu0_ITLB TOTAL        ACCESS:    1899021 HIT:    1899021 MISS:          0
cpu0_ITLB LOAD         ACCESS:    1899021 HIT:    1899021 MISS:          0
cpu0_ITLB RFO          ACCESS:          0 HIT:          0 MISS:          0
cpu0_ITLB PREFETCH     ACCESS:          0 HIT:          0 MISS:          0
cpu0_ITLB WRITE        ACCESS:          0 HIT:          0 MISS:          0
cpu0_ITLB TRANSLATION  ACCESS:          0 HIT:          0 MISS:          0
cpu0_ITLB PREFETCH REQUESTED:          0 ISSUED:          0 USEFUL:          0 USELESS:          0
cpu0_ITLB AVERAGE MISS LATENCY: -nan cycles
cpu0_L1D TOTAL        ACCESS:  125824123 HIT:  124632406 MISS:    1191717
cpu0_L1D LOAD         ACCESS:  104708200 HIT:  104664611 MISS:      43589
cpu0_L1D RFO          ACCESS:          0 HIT:          0 MISS:          0
cpu0_L1D PREFETCH     ACCESS:          0 HIT:          0 MISS:          0
cpu0_L1D WRITE        ACCESS:   21113227 HIT:   19965364 MISS:    1147863
cpu0_L1D TRANSLATION  ACCESS:       2696 HIT:       2431 MISS:        265
cpu0_L1D PREFETCH REQUESTED:          0 ISSUED:          0 USEFUL:          0 USELESS:          0
cpu0_L1D AVERAGE MISS LATENCY: 59.15 cycles
cpu0_L1I TOTAL        ACCESS:    2199064 HIT:    2199064 MISS:          0
cpu0_L1I LOAD         ACCESS:    2199064 HIT:    2199064 MISS:          0
cpu0_L1I RFO          ACCESS:          0 HIT:          0 MISS:          0
cpu0_L1I PREFETCH     ACCESS:          0 HIT:          0 MISS:          0
cpu0_L1I WRITE        ACCESS:          0 HIT:          0 MISS:          0
cpu0_L1I TRANSLATION  ACCESS:          0 HIT:          0 MISS:          0
cpu0_L1I PREFETCH REQUESTED:          0 ISSUED:          0 USEFUL:          0 USELESS:          0
cpu0_L1I AVERAGE MISS LATENCY: -nan cycles
cpu0_L2C TOTAL        ACCESS:     331338 HIT:     159259 MISS:     172079
cpu0_L2C LOAD         ACCESS:      16981 HIT:       1221 MISS:      15760
cpu0_L2C RFO          ACCESS:     157338 HIT:       1064 MISS:     156274
cpu0_L2C PREFETCH     ACCESS:          0 HIT:          0 MISS:          0
cpu0_L2C WRITE        ACCESS:     156754 HIT:     156730 MISS:         24
cpu0_L2C TRANSLATION  ACCESS:        265 HIT:        244 MISS:         21
cpu0_L2C PREFETCH REQUESTED:          0 ISSUED:          0 USEFUL:          0 USELESS:          0
cpu0_L2C AVERAGE MISS LATENCY: 428.9 cycles
cpu0_STLB TOTAL        ACCESS:       2815 HIT:        124 MISS:       2691
cpu0_STLB LOAD         ACCESS:       2815 HIT:        124 MISS:       2691
cpu0_STLB RFO          ACCESS:          0 HIT:          0 MISS:          0
cpu0_STLB PREFETCH     ACCESS:          0 HIT:          0 MISS:          0
cpu0_STLB WRITE        ACCESS:          0 HIT:          0 MISS:          0
cpu0_STLB TRANSLATION  ACCESS:          0 HIT:          0 MISS:          0
cpu0_STLB PREFETCH REQUESTED:          0 ISSUED:          0 USEFUL:          0 USELESS:          0
cpu0_STLB AVERAGE MISS LATENCY: 209.7 cycles

DRAM Statistics

Channel 0 RQ ROW_BUFFER_HIT:      59523
  ROW_BUFFER_MISS:     112500
 AVG DBUS CONGESTED CYCLE: 3.932
WQ ROW_BUFFER_HIT: Channel 0 
  ROW_BUFFER_MISS:      53787
  FULL:     102119

NOT_BRANCH: 0

BRANCH_DIRECT_JUMP: 16403078

BRANCH_INDIRECT: 1555774

BRANCH_CONDITIONAL: 194400119

BRANCH_DIRECT_CALL: 2643820

BRANCH_INDIRECT_CALL: 0

BRANCH_RETURN: 2643820

BRANCH_OTHER: 0
