WARNING: physical memory size is smaller than virtual memory size.

*** ChampSim Multicore Out-of-Order Simulator ***
Warmup Instructions: 1000000000
Simulation Instructions: 500000000
Number of CPUs: 1
Page size: 4096

Off-chip DRAM Size: 4 GiB Channels: 1 Width: 64-bit Data Race: 3200 MT/s
Heartbeat CPU 0 instructions: 10000002 cycles: 2517296 heartbeat IPC: 3.973 cumulative IPC: 3.973 (Simulation time: 00 hr 00 min 16 sec)
Heartbeat CPU 0 instructions: 20000002 cycles: 5027430 heartbeat IPC: 3.984 cumulative IPC: 3.978 (Simulation time: 00 hr 00 min 33 sec)
Heartbeat CPU 0 instructions: 30000000 cycles: 7551802 heartbeat IPC: 3.961 cumulative IPC: 3.973 (Simulation time: 00 hr 00 min 50 sec)
Heartbeat CPU 0 instructions: 40000001 cycles: 10075908 heartbeat IPC: 3.962 cumulative IPC: 3.97 (Simulation time: 00 hr 01 min 07 sec)
Heartbeat CPU 0 instructions: 50000000 cycles: 12599774 heartbeat IPC: 3.962 cumulative IPC: 3.968 (Simulation time: 00 hr 01 min 24 sec)
Heartbeat CPU 0 instructions: 60000000 cycles: 15126754 heartbeat IPC: 3.957 cumulative IPC: 3.966 (Simulation time: 00 hr 01 min 44 sec)
Heartbeat CPU 0 instructions: 70000001 cycles: 17653873 heartbeat IPC: 3.957 cumulative IPC: 3.965 (Simulation time: 00 hr 02 min 03 sec)
Heartbeat CPU 0 instructions: 80000001 cycles: 20179772 heartbeat IPC: 3.959 cumulative IPC: 3.964 (Simulation time: 00 hr 02 min 22 sec)
Heartbeat CPU 0 instructions: 90000003 cycles: 22704088 heartbeat IPC: 3.961 cumulative IPC: 3.964 (Simulation time: 00 hr 02 min 41 sec)
Heartbeat CPU 0 instructions: 100000000 cycles: 25231376 heartbeat IPC: 3.957 cumulative IPC: 3.963 (Simulation time: 00 hr 03 min 00 sec)
Heartbeat CPU 0 instructions: 110000003 cycles: 27758547 heartbeat IPC: 3.957 cumulative IPC: 3.963 (Simulation time: 00 hr 03 min 18 sec)
Heartbeat CPU 0 instructions: 120000003 cycles: 30285883 heartbeat IPC: 3.957 cumulative IPC: 3.962 (Simulation time: 00 hr 03 min 37 sec)
Heartbeat CPU 0 instructions: 130000002 cycles: 32813392 heartbeat IPC: 3.956 cumulative IPC: 3.962 (Simulation time: 00 hr 03 min 56 sec)
Heartbeat CPU 0 instructions: 140000001 cycles: 35342748 heartbeat IPC: 3.954 cumulative IPC: 3.961 (Simulation time: 00 hr 04 min 15 sec)
Heartbeat CPU 0 instructions: 150000000 cycles: 37869593 heartbeat IPC: 3.958 cumulative IPC: 3.961 (Simulation time: 00 hr 04 min 34 sec)
Heartbeat CPU 0 instructions: 160000000 cycles: 40397249 heartbeat IPC: 3.956 cumulative IPC: 3.961 (Simulation time: 00 hr 04 min 53 sec)
Heartbeat CPU 0 instructions: 170000003 cycles: 42923808 heartbeat IPC: 3.958 cumulative IPC: 3.961 (Simulation time: 00 hr 05 min 12 sec)
Heartbeat CPU 0 instructions: 180000003 cycles: 45452489 heartbeat IPC: 3.955 cumulative IPC: 3.96 (Simulation time: 00 hr 05 min 31 sec)
Heartbeat CPU 0 instructions: 190000002 cycles: 47979212 heartbeat IPC: 3.958 cumulative IPC: 3.96 (Simulation time: 00 hr 05 min 50 sec)
Heartbeat CPU 0 instructions: 200000001 cycles: 50505514 heartbeat IPC: 3.958 cumulative IPC: 3.96 (Simulation time: 00 hr 06 min 09 sec)
Heartbeat CPU 0 instructions: 210000002 cycles: 53030428 heartbeat IPC: 3.961 cumulative IPC: 3.96 (Simulation time: 00 hr 06 min 27 sec)
Heartbeat CPU 0 instructions: 220000002 cycles: 55556622 heartbeat IPC: 3.959 cumulative IPC: 3.96 (Simulation time: 00 hr 06 min 46 sec)
Heartbeat CPU 0 instructions: 230000000 cycles: 58083925 heartbeat IPC: 3.957 cumulative IPC: 3.96 (Simulation time: 00 hr 07 min 05 sec)
Heartbeat CPU 0 instructions: 240000003 cycles: 60608894 heartbeat IPC: 3.96 cumulative IPC: 3.96 (Simulation time: 00 hr 07 min 24 sec)
Heartbeat CPU 0 instructions: 250000002 cycles: 63134416 heartbeat IPC: 3.96 cumulative IPC: 3.96 (Simulation time: 00 hr 07 min 43 sec)
Heartbeat CPU 0 instructions: 260000003 cycles: 65659978 heartbeat IPC: 3.96 cumulative IPC: 3.96 (Simulation time: 00 hr 08 min 02 sec)
Heartbeat CPU 0 instructions: 270000003 cycles: 68185705 heartbeat IPC: 3.959 cumulative IPC: 3.96 (Simulation time: 00 hr 08 min 21 sec)
Heartbeat CPU 0 instructions: 280000001 cycles: 70711705 heartbeat IPC: 3.959 cumulative IPC: 3.96 (Simulation time: 00 hr 08 min 40 sec)
Heartbeat CPU 0 instructions: 290000001 cycles: 73238291 heartbeat IPC: 3.958 cumulative IPC: 3.96 (Simulation time: 00 hr 08 min 59 sec)
Heartbeat CPU 0 instructions: 300000000 cycles: 75763689 heartbeat IPC: 3.96 cumulative IPC: 3.96 (Simulation time: 00 hr 09 min 18 sec)
Heartbeat CPU 0 instructions: 310000000 cycles: 78289336 heartbeat IPC: 3.959 cumulative IPC: 3.96 (Simulation time: 00 hr 09 min 37 sec)
Heartbeat CPU 0 instructions: 320000002 cycles: 80814405 heartbeat IPC: 3.96 cumulative IPC: 3.96 (Simulation time: 00 hr 09 min 56 sec)
Heartbeat CPU 0 instructions: 330000001 cycles: 83340026 heartbeat IPC: 3.959 cumulative IPC: 3.96 (Simulation time: 00 hr 10 min 15 sec)
Heartbeat CPU 0 instructions: 340000001 cycles: 85867471 heartbeat IPC: 3.957 cumulative IPC: 3.96 (Simulation time: 00 hr 10 min 34 sec)
Heartbeat CPU 0 instructions: 350000000 cycles: 88395918 heartbeat IPC: 3.955 cumulative IPC: 3.959 (Simulation time: 00 hr 10 min 53 sec)
Heartbeat CPU 0 instructions: 360000001 cycles: 90923252 heartbeat IPC: 3.957 cumulative IPC: 3.959 (Simulation time: 00 hr 11 min 12 sec)
Heartbeat CPU 0 instructions: 370000002 cycles: 93451874 heartbeat IPC: 3.955 cumulative IPC: 3.959 (Simulation time: 00 hr 11 min 31 sec)
Heartbeat CPU 0 instructions: 380000000 cycles: 95979468 heartbeat IPC: 3.956 cumulative IPC: 3.959 (Simulation time: 00 hr 11 min 50 sec)
Heartbeat CPU 0 instructions: 390000003 cycles: 98506938 heartbeat IPC: 3.957 cumulative IPC: 3.959 (Simulation time: 00 hr 12 min 09 sec)
Heartbeat CPU 0 instructions: 400000003 cycles: 101033360 heartbeat IPC: 3.958 cumulative IPC: 3.959 (Simulation time: 00 hr 12 min 28 sec)
Heartbeat CPU 0 instructions: 410000002 cycles: 103560105 heartbeat IPC: 3.958 cumulative IPC: 3.959 (Simulation time: 00 hr 12 min 46 sec)
Heartbeat CPU 0 instructions: 420000004 cycles: 106085233 heartbeat IPC: 3.96 cumulative IPC: 3.959 (Simulation time: 00 hr 13 min 05 sec)
Heartbeat CPU 0 instructions: 430000001 cycles: 108609724 heartbeat IPC: 3.961 cumulative IPC: 3.959 (Simulation time: 00 hr 13 min 24 sec)
Heartbeat CPU 0 instructions: 440000003 cycles: 111131885 heartbeat IPC: 3.965 cumulative IPC: 3.959 (Simulation time: 00 hr 13 min 43 sec)
Heartbeat CPU 0 instructions: 450000004 cycles: 113655700 heartbeat IPC: 3.962 cumulative IPC: 3.959 (Simulation time: 00 hr 14 min 02 sec)
Heartbeat CPU 0 instructions: 460000001 cycles: 116179745 heartbeat IPC: 3.962 cumulative IPC: 3.959 (Simulation time: 00 hr 14 min 21 sec)
Heartbeat CPU 0 instructions: 470000001 cycles: 118688394 heartbeat IPC: 3.986 cumulative IPC: 3.96 (Simulation time: 00 hr 14 min 42 sec)
Heartbeat CPU 0 instructions: 480000002 cycles: 121208230 heartbeat IPC: 3.969 cumulative IPC: 3.96 (Simulation time: 00 hr 15 min 02 sec)
Heartbeat CPU 0 instructions: 490000001 cycles: 123733997 heartbeat IPC: 3.959 cumulative IPC: 3.96 (Simulation time: 00 hr 15 min 21 sec)
Heartbeat CPU 0 instructions: 500000003 cycles: 126262061 heartbeat IPC: 3.956 cumulative IPC: 3.96 (Simulation time: 00 hr 15 min 40 sec)
Heartbeat CPU 0 instructions: 510000003 cycles: 128790018 heartbeat IPC: 3.956 cumulative IPC: 3.96 (Simulation time: 00 hr 15 min 59 sec)
Heartbeat CPU 0 instructions: 520000001 cycles: 131315286 heartbeat IPC: 3.96 cumulative IPC: 3.96 (Simulation time: 00 hr 16 min 18 sec)
Heartbeat CPU 0 instructions: 530000001 cycles: 133832423 heartbeat IPC: 3.973 cumulative IPC: 3.96 (Simulation time: 00 hr 16 min 37 sec)
Heartbeat CPU 0 instructions: 540000003 cycles: 136348187 heartbeat IPC: 3.975 cumulative IPC: 3.96 (Simulation time: 00 hr 16 min 57 sec)
Heartbeat CPU 0 instructions: 550000003 cycles: 138864429 heartbeat IPC: 3.974 cumulative IPC: 3.961 (Simulation time: 00 hr 17 min 16 sec)
Heartbeat CPU 0 instructions: 560000000 cycles: 141381248 heartbeat IPC: 3.973 cumulative IPC: 3.961 (Simulation time: 00 hr 17 min 36 sec)
Heartbeat CPU 0 instructions: 570000003 cycles: 143896661 heartbeat IPC: 3.975 cumulative IPC: 3.961 (Simulation time: 00 hr 17 min 55 sec)
Heartbeat CPU 0 instructions: 580000003 cycles: 146411790 heartbeat IPC: 3.976 cumulative IPC: 3.961 (Simulation time: 00 hr 18 min 15 sec)
Heartbeat CPU 0 instructions: 590000001 cycles: 148926216 heartbeat IPC: 3.977 cumulative IPC: 3.962 (Simulation time: 00 hr 18 min 35 sec)
Heartbeat CPU 0 instructions: 600000001 cycles: 151441904 heartbeat IPC: 3.975 cumulative IPC: 3.962 (Simulation time: 00 hr 18 min 54 sec)
Heartbeat CPU 0 instructions: 610000001 cycles: 153957414 heartbeat IPC: 3.975 cumulative IPC: 3.962 (Simulation time: 00 hr 19 min 14 sec)
Heartbeat CPU 0 instructions: 620000001 cycles: 156471928 heartbeat IPC: 3.977 cumulative IPC: 3.962 (Simulation time: 00 hr 19 min 33 sec)
Heartbeat CPU 0 instructions: 630000001 cycles: 158985294 heartbeat IPC: 3.979 cumulative IPC: 3.963 (Simulation time: 00 hr 19 min 53 sec)
Heartbeat CPU 0 instructions: 640000002 cycles: 161502251 heartbeat IPC: 3.973 cumulative IPC: 3.963 (Simulation time: 00 hr 20 min 13 sec)
Heartbeat CPU 0 instructions: 650000003 cycles: 164025919 heartbeat IPC: 3.962 cumulative IPC: 3.963 (Simulation time: 00 hr 20 min 32 sec)
Heartbeat CPU 0 instructions: 660000003 cycles: 166552535 heartbeat IPC: 3.958 cumulative IPC: 3.963 (Simulation time: 00 hr 20 min 51 sec)
Heartbeat CPU 0 instructions: 670000003 cycles: 169073123 heartbeat IPC: 3.967 cumulative IPC: 3.963 (Simulation time: 00 hr 21 min 10 sec)
Heartbeat CPU 0 instructions: 680000003 cycles: 171600050 heartbeat IPC: 3.957 cumulative IPC: 3.963 (Simulation time: 00 hr 21 min 29 sec)
Heartbeat CPU 0 instructions: 690000001 cycles: 174126501 heartbeat IPC: 3.958 cumulative IPC: 3.963 (Simulation time: 00 hr 21 min 48 sec)
Heartbeat CPU 0 instructions: 700000003 cycles: 176654923 heartbeat IPC: 3.955 cumulative IPC: 3.963 (Simulation time: 00 hr 22 min 07 sec)
Heartbeat CPU 0 instructions: 710000000 cycles: 179181451 heartbeat IPC: 3.958 cumulative IPC: 3.962 (Simulation time: 00 hr 22 min 26 sec)
Heartbeat CPU 0 instructions: 720000001 cycles: 181706197 heartbeat IPC: 3.961 cumulative IPC: 3.962 (Simulation time: 00 hr 22 min 45 sec)
Heartbeat CPU 0 instructions: 730000000 cycles: 184211416 heartbeat IPC: 3.992 cumulative IPC: 3.963 (Simulation time: 00 hr 23 min 06 sec)
Heartbeat CPU 0 instructions: 740000000 cycles: 186734872 heartbeat IPC: 3.963 cumulative IPC: 3.963 (Simulation time: 00 hr 23 min 26 sec)
Heartbeat CPU 0 instructions: 750000001 cycles: 189261633 heartbeat IPC: 3.958 cumulative IPC: 3.963 (Simulation time: 00 hr 23 min 45 sec)
Heartbeat CPU 0 instructions: 760000001 cycles: 191788229 heartbeat IPC: 3.958 cumulative IPC: 3.963 (Simulation time: 00 hr 24 min 04 sec)
Heartbeat CPU 0 instructions: 770000000 cycles: 194315746 heartbeat IPC: 3.956 cumulative IPC: 3.963 (Simulation time: 00 hr 24 min 23 sec)
Heartbeat CPU 0 instructions: 780000001 cycles: 196839987 heartbeat IPC: 3.962 cumulative IPC: 3.963 (Simulation time: 00 hr 24 min 42 sec)
Heartbeat CPU 0 instructions: 790000000 cycles: 199364926 heartbeat IPC: 3.96 cumulative IPC: 3.963 (Simulation time: 00 hr 25 min 01 sec)
Heartbeat CPU 0 instructions: 800000003 cycles: 201886904 heartbeat IPC: 3.965 cumulative IPC: 3.963 (Simulation time: 00 hr 25 min 20 sec)
Heartbeat CPU 0 instructions: 810000001 cycles: 204407986 heartbeat IPC: 3.967 cumulative IPC: 3.963 (Simulation time: 00 hr 25 min 39 sec)
Heartbeat CPU 0 instructions: 820000000 cycles: 206925651 heartbeat IPC: 3.972 cumulative IPC: 3.963 (Simulation time: 00 hr 25 min 59 sec)
Heartbeat CPU 0 instructions: 830000001 cycles: 209450039 heartbeat IPC: 3.961 cumulative IPC: 3.963 (Simulation time: 00 hr 26 min 18 sec)
Heartbeat CPU 0 instructions: 840000000 cycles: 211972952 heartbeat IPC: 3.964 cumulative IPC: 3.963 (Simulation time: 00 hr 26 min 37 sec)
Heartbeat CPU 0 instructions: 850000001 cycles: 214496110 heartbeat IPC: 3.963 cumulative IPC: 3.963 (Simulation time: 00 hr 26 min 57 sec)
Heartbeat CPU 0 instructions: 860000000 cycles: 217019548 heartbeat IPC: 3.963 cumulative IPC: 3.963 (Simulation time: 00 hr 27 min 16 sec)
Heartbeat CPU 0 instructions: 870000001 cycles: 219541536 heartbeat IPC: 3.965 cumulative IPC: 3.963 (Simulation time: 00 hr 27 min 35 sec)
Heartbeat CPU 0 instructions: 880000002 cycles: 222065053 heartbeat IPC: 3.963 cumulative IPC: 3.963 (Simulation time: 00 hr 27 min 54 sec)
Heartbeat CPU 0 instructions: 890000001 cycles: 224588872 heartbeat IPC: 3.962 cumulative IPC: 3.963 (Simulation time: 00 hr 28 min 13 sec)
Heartbeat CPU 0 instructions: 900000001 cycles: 227111483 heartbeat IPC: 3.964 cumulative IPC: 3.963 (Simulation time: 00 hr 28 min 33 sec)
Heartbeat CPU 0 instructions: 910000003 cycles: 229634366 heartbeat IPC: 3.964 cumulative IPC: 3.963 (Simulation time: 00 hr 28 min 52 sec)
Heartbeat CPU 0 instructions: 920000003 cycles: 232157169 heartbeat IPC: 3.964 cumulative IPC: 3.963 (Simulation time: 00 hr 29 min 11 sec)
Heartbeat CPU 0 instructions: 930000001 cycles: 234674261 heartbeat IPC: 3.973 cumulative IPC: 3.963 (Simulation time: 00 hr 29 min 31 sec)
Heartbeat CPU 0 instructions: 940000000 cycles: 237197910 heartbeat IPC: 3.963 cumulative IPC: 3.963 (Simulation time: 00 hr 29 min 50 sec)
Heartbeat CPU 0 instructions: 950000000 cycles: 239720917 heartbeat IPC: 3.964 cumulative IPC: 3.963 (Simulation time: 00 hr 30 min 10 sec)
Heartbeat CPU 0 instructions: 960000000 cycles: 242244797 heartbeat IPC: 3.962 cumulative IPC: 3.963 (Simulation time: 00 hr 30 min 29 sec)
Heartbeat CPU 0 instructions: 970000001 cycles: 244772031 heartbeat IPC: 3.957 cumulative IPC: 3.963 (Simulation time: 00 hr 30 min 48 sec)
Heartbeat CPU 0 instructions: 980000002 cycles: 247299424 heartbeat IPC: 3.957 cumulative IPC: 3.963 (Simulation time: 00 hr 31 min 07 sec)
Heartbeat CPU 0 instructions: 990000001 cycles: 249827284 heartbeat IPC: 3.956 cumulative IPC: 3.963 (Simulation time: 00 hr 31 min 26 sec)
Heartbeat CPU 0 instructions: 1000000002 cycles: 252357187 heartbeat IPC: 3.953 cumulative IPC: 3.963 (Simulation time: 00 hr 31 min 45 sec)
Warmup finished CPU 0 instructions: 1000000002 cycles: 252357188 cumulative IPC: 3.963 (Simulation time: 00 hr 31 min 45 sec)
Warmup complete CPU 0 instructions: 1000000002 cycles: 252357188 cumulative IPC: 3.963 (Simulation time: 00 hr 31 min 45 sec)
Heartbeat CPU 0 instructions: 1010000000 cycles: 256666585 heartbeat IPC: 2.321 cumulative IPC: 2.321 (Simulation time: 00 hr 32 min 14 sec)
Heartbeat CPU 0 instructions: 1020000004 cycles: 261779966 heartbeat IPC: 1.956 cumulative IPC: 2.123 (Simulation time: 00 hr 32 min 49 sec)
Heartbeat CPU 0 instructions: 1030000004 cycles: 265405337 heartbeat IPC: 2.758 cumulative IPC: 2.299 (Simulation time: 00 hr 33 min 14 sec)
Heartbeat CPU 0 instructions: 1040000003 cycles: 269017039 heartbeat IPC: 2.769 cumulative IPC: 2.401 (Simulation time: 00 hr 33 min 38 sec)
Heartbeat CPU 0 instructions: 1050000000 cycles: 272640525 heartbeat IPC: 2.76 cumulative IPC: 2.465 (Simulation time: 00 hr 34 min 03 sec)
Heartbeat CPU 0 instructions: 1060000003 cycles: 276372670 heartbeat IPC: 2.679 cumulative IPC: 2.498 (Simulation time: 00 hr 34 min 28 sec)
Heartbeat CPU 0 instructions: 1070000000 cycles: 280055046 heartbeat IPC: 2.716 cumulative IPC: 2.527 (Simulation time: 00 hr 34 min 53 sec)
Heartbeat CPU 0 instructions: 1080000000 cycles: 283670372 heartbeat IPC: 2.766 cumulative IPC: 2.555 (Simulation time: 00 hr 35 min 19 sec)
Heartbeat CPU 0 instructions: 1090000004 cycles: 287191953 heartbeat IPC: 2.84 cumulative IPC: 2.584 (Simulation time: 00 hr 35 min 44 sec)
Heartbeat CPU 0 instructions: 1100000001 cycles: 290767470 heartbeat IPC: 2.797 cumulative IPC: 2.603 (Simulation time: 00 hr 36 min 09 sec)
Heartbeat CPU 0 instructions: 1110000001 cycles: 294408501 heartbeat IPC: 2.746 cumulative IPC: 2.616 (Simulation time: 00 hr 36 min 34 sec)
Heartbeat CPU 0 instructions: 1120000002 cycles: 298049427 heartbeat IPC: 2.747 cumulative IPC: 2.626 (Simulation time: 00 hr 36 min 59 sec)
Heartbeat CPU 0 instructions: 1130000002 cycles: 301555562 heartbeat IPC: 2.852 cumulative IPC: 2.642 (Simulation time: 00 hr 37 min 24 sec)
Heartbeat CPU 0 instructions: 1140000001 cycles: 305201410 heartbeat IPC: 2.743 cumulative IPC: 2.649 (Simulation time: 00 hr 37 min 49 sec)
Heartbeat CPU 0 instructions: 1150000000 cycles: 308847281 heartbeat IPC: 2.743 cumulative IPC: 2.655 (Simulation time: 00 hr 38 min 14 sec)
Heartbeat CPU 0 instructions: 1160000000 cycles: 312444214 heartbeat IPC: 2.78 cumulative IPC: 2.663 (Simulation time: 00 hr 38 min 39 sec)
Heartbeat CPU 0 instructions: 1170000001 cycles: 316092075 heartbeat IPC: 2.741 cumulative IPC: 2.667 (Simulation time: 00 hr 39 min 04 sec)
Heartbeat CPU 0 instructions: 1180000000 cycles: 319678833 heartbeat IPC: 2.788 cumulative IPC: 2.674 (Simulation time: 00 hr 39 min 29 sec)
Heartbeat CPU 0 instructions: 1190000000 cycles: 323288006 heartbeat IPC: 2.771 cumulative IPC: 2.679 (Simulation time: 00 hr 39 min 53 sec)
Heartbeat CPU 0 instructions: 1200000001 cycles: 326869108 heartbeat IPC: 2.792 cumulative IPC: 2.684 (Simulation time: 00 hr 40 min 18 sec)
Heartbeat CPU 0 instructions: 1210000001 cycles: 330475016 heartbeat IPC: 2.773 cumulative IPC: 2.688 (Simulation time: 00 hr 40 min 43 sec)
Heartbeat CPU 0 instructions: 1220000003 cycles: 334088514 heartbeat IPC: 2.767 cumulative IPC: 2.692 (Simulation time: 00 hr 41 min 08 sec)
Heartbeat CPU 0 instructions: 1230000001 cycles: 337648340 heartbeat IPC: 2.809 cumulative IPC: 2.697 (Simulation time: 00 hr 41 min 33 sec)
Heartbeat CPU 0 instructions: 1240000004 cycles: 341276036 heartbeat IPC: 2.757 cumulative IPC: 2.699 (Simulation time: 00 hr 41 min 58 sec)
Heartbeat CPU 0 instructions: 1250000001 cycles: 344758994 heartbeat IPC: 2.871 cumulative IPC: 2.706 (Simulation time: 00 hr 42 min 23 sec)
Heartbeat CPU 0 instructions: 1260000001 cycles: 348383106 heartbeat IPC: 2.759 cumulative IPC: 2.708 (Simulation time: 00 hr 42 min 48 sec)
Heartbeat CPU 0 instructions: 1270000000 cycles: 351988087 heartbeat IPC: 2.774 cumulative IPC: 2.71 (Simulation time: 00 hr 43 min 13 sec)
Heartbeat CPU 0 instructions: 1280000000 cycles: 355497201 heartbeat IPC: 2.85 cumulative IPC: 2.715 (Simulation time: 00 hr 43 min 37 sec)
Heartbeat CPU 0 instructions: 1290000002 cycles: 359107514 heartbeat IPC: 2.77 cumulative IPC: 2.717 (Simulation time: 00 hr 44 min 02 sec)
Heartbeat CPU 0 instructions: 1300000001 cycles: 362653232 heartbeat IPC: 2.82 cumulative IPC: 2.72 (Simulation time: 00 hr 44 min 27 sec)
Heartbeat CPU 0 instructions: 1310000003 cycles: 366299137 heartbeat IPC: 2.743 cumulative IPC: 2.721 (Simulation time: 00 hr 44 min 52 sec)
Heartbeat CPU 0 instructions: 1320000003 cycles: 369963945 heartbeat IPC: 2.729 cumulative IPC: 2.721 (Simulation time: 00 hr 45 min 17 sec)
Heartbeat CPU 0 instructions: 1330000003 cycles: 373524684 heartbeat IPC: 2.808 cumulative IPC: 2.724 (Simulation time: 00 hr 45 min 42 sec)
Heartbeat CPU 0 instructions: 1340000004 cycles: 377056450 heartbeat IPC: 2.831 cumulative IPC: 2.727 (Simulation time: 00 hr 46 min 06 sec)
Heartbeat CPU 0 instructions: 1350000001 cycles: 380622428 heartbeat IPC: 2.804 cumulative IPC: 2.729 (Simulation time: 00 hr 46 min 31 sec)
Heartbeat CPU 0 instructions: 1360000004 cycles: 385147478 heartbeat IPC: 2.21 cumulative IPC: 2.711 (Simulation time: 00 hr 47 min 02 sec)
Heartbeat CPU 0 instructions: 1370000004 cycles: 389934827 heartbeat IPC: 2.089 cumulative IPC: 2.689 (Simulation time: 00 hr 47 min 34 sec)
Heartbeat CPU 0 instructions: 1380000000 cycles: 393553271 heartbeat IPC: 2.764 cumulative IPC: 2.691 (Simulation time: 00 hr 47 min 59 sec)
Heartbeat CPU 0 instructions: 1390000002 cycles: 397187800 heartbeat IPC: 2.751 cumulative IPC: 2.693 (Simulation time: 00 hr 48 min 24 sec)
Heartbeat CPU 0 instructions: 1400000004 cycles: 400796818 heartbeat IPC: 2.771 cumulative IPC: 2.695 (Simulation time: 00 hr 48 min 48 sec)
Heartbeat CPU 0 instructions: 1410000004 cycles: 404445549 heartbeat IPC: 2.741 cumulative IPC: 2.696 (Simulation time: 00 hr 49 min 13 sec)
Heartbeat CPU 0 instructions: 1420000002 cycles: 408030865 heartbeat IPC: 2.789 cumulative IPC: 2.698 (Simulation time: 00 hr 49 min 39 sec)
Heartbeat CPU 0 instructions: 1430000002 cycles: 411650396 heartbeat IPC: 2.763 cumulative IPC: 2.699 (Simulation time: 00 hr 50 min 04 sec)
Heartbeat CPU 0 instructions: 1440000000 cycles: 415230329 heartbeat IPC: 2.793 cumulative IPC: 2.701 (Simulation time: 00 hr 50 min 28 sec)
Heartbeat CPU 0 instructions: 1450000002 cycles: 418816781 heartbeat IPC: 2.788 cumulative IPC: 2.703 (Simulation time: 00 hr 50 min 54 sec)
Heartbeat CPU 0 instructions: 1460000003 cycles: 422366564 heartbeat IPC: 2.817 cumulative IPC: 2.706 (Simulation time: 00 hr 51 min 19 sec)
Heartbeat CPU 0 instructions: 1470000000 cycles: 425915372 heartbeat IPC: 2.818 cumulative IPC: 2.708 (Simulation time: 00 hr 51 min 43 sec)
Heartbeat CPU 0 instructions: 1480000000 cycles: 429386325 heartbeat IPC: 2.881 cumulative IPC: 2.711 (Simulation time: 00 hr 52 min 07 sec)
Heartbeat CPU 0 instructions: 1490000000 cycles: 433019965 heartbeat IPC: 2.752 cumulative IPC: 2.712 (Simulation time: 00 hr 52 min 30 sec)
Heartbeat CPU 0 instructions: 1500000000 cycles: 436576065 heartbeat IPC: 2.812 cumulative IPC: 2.714 (Simulation time: 00 hr 52 min 53 sec)
Simulation finished CPU 0 instructions: 500000003 cycles: 184218879 cumulative IPC: 2.714 (Simulation time: 00 hr 52 min 53 sec)
Simulation complete CPU 0 instructions: 500000003 cycles: 184218879 cumulative IPC: 2.714 (Simulation time: 00 hr 52 min 53 sec)

ChampSim completed all CPUs

=== Simulation ===
CPU 0 runs traces/603.bwaves_s-1080B.champsimtrace.xz
Region of Interest Statistics

CPU 0 cumulative IPC: 2.714 instructions: 500000003 cycles: 184218879
CPU 0 Branch Prediction Accuracy: 94.18% MPKI: 8.453 Average ROB Occupancy at Mispredict: 41.55
Branch type MPKI
BRANCH_DIRECT_JUMP: 0.186
BRANCH_INDIRECT: 0
BRANCH_CONDITIONAL: 8.14
BRANCH_DIRECT_CALL: 0
BRANCH_INDIRECT_CALL: 0
BRANCH_RETURN: 0.131

LLC TOTAL        ACCESS:     328064 HIT:     156018 MISS:     172046
LLC LOAD         ACCESS:      15737 HIT:         14 MISS:      15723
LLC RFO          ACCESS:     156299 HIT:         13 MISS:     156286
LLC PREFETCH     ACCESS:          0 HIT:          0 MISS:          0
LLC WRITE        ACCESS:     156007 HIT:     155988 MISS:         19
LLC TRANSLATION  ACCESS:         21 HIT:          3 MISS:         18
LLC PREFETCH REQUESTED:          0 ISSUED:          0 USEFUL:          0 USELESS:          0
LLC AVERAGE MISS LATENCY: 408.8 cycles
cpu0_DTLB TOTAL        ACCESS:   80960346 HIT:   80936361 MISS:      23985
cpu0_DTLB LOAD         ACCESS:   80960346 HIT:   80936361 MISS:      23985
cpu0_DTLB RFO          ACCESS:          0 HIT:          0 MISS:          0
cpu0_DTLB PREFETCH     ACCESS:          0 HIT:          0 MISS:          0
cpu0_DTLB WRITE        ACCESS:          0 HIT:          0 MISS:          0
cpu0_DTLB TRANSLATION  ACCESS:          0 HIT:          0 MISS:          0
cpu0_DTLB PREFETCH REQUESTED:          0 ISSUED:          0 USEFUL:          0 USELESS:          0
cpu0_DTLB AVERAGE MISS LATENCY: 19.56 cycles
cpu0_ITLB TOTAL        ACCESS:    1896301 HIT:    1896301 MISS:          0
cpu0_ITLB LOAD         ACCESS:    1896301 HIT:    1896301 MISS:          0
cpu0_ITLB RFO          ACCESS:          0 HIT:          0 MISS:          0
cpu0_ITLB PREFETCH     ACCESS:          0 HIT:          0 MISS:          0
cpu0_ITLB WRITE        ACCESS:          0 HIT:          0 MISS:          0
cpu0_ITLB TRANSLATION  ACCESS:          0 HIT:          0 MISS:          0
cpu0_ITLB PREFETCH REQUESTED:          0 ISSUED:          0 USEFUL:          0 USELESS:          0
cpu0_ITLB AVERAGE MISS LATENCY: -nan cycles
cpu0_L1D TOTAL        ACCESS:  125427607 HIT:  124235283 MISS:    1192324
cpu0_L1D LOAD         ACCESS:  104306608 HIT:  104263059 MISS:      43549
cpu0_L1D RFO          ACCESS:          0 HIT:          0 MISS:          0
cpu0_L1D PREFETCH     ACCESS:          0 HIT:          0 MISS:          0
cpu0_L1D WRITE        ACCESS:   21118303 HIT:   19969793 MISS:    1148510
cpu0_L1D TRANSLATION  ACCESS:       2696 HIT:       2431 MISS:        265
cpu0_L1D PREFETCH REQUESTED:          0 ISSUED:          0 USEFUL:          0 USELESS:          0
cpu0_L1D AVERAGE MISS LATENCY: 59.24 cycles
cpu0_L1I TOTAL        ACCESS:    2196653 HIT:    2196653 MISS:          0
cpu0_L1I LOAD         ACCESS:    2196653 HIT:    2196653 MISS:          0
cpu0_L1I RFO          ACCESS:          0 HIT:          0 MISS:          0
cpu0_L1I PREFETCH     ACCESS:          0 HIT:          0 MISS:          0
cpu0_L1I WRITE        ACCESS:          0 HIT:          0 MISS:          0
cpu0_L1I TRANSLATION  ACCESS:          0 HIT:          0 MISS:          0
cpu0_L1I PREFETCH REQUESTED:          0 ISSUED:          0 USEFUL:          0 USELESS:          0
cpu0_L1I AVERAGE MISS LATENCY: -nan cycles
cpu0_L2C TOTAL        ACCESS:     331633 HIT:     159559 MISS:     172074
cpu0_L2C LOAD         ACCESS:      16961 HIT:       1224 MISS:      15737
cpu0_L2C RFO          ACCESS:     157500 HIT:       1201 MISS:     156299
cpu0_L2C PREFETCH     ACCESS:          0 HIT:          0 MISS:          0
cpu0_L2C WRITE        ACCESS:     156907 HIT:     156890 MISS:         17
cpu0_L2C TRANSLATION  ACCESS:        265 HIT:        244 MISS:         21
cpu0_L2C PREFETCH REQUESTED:          0 ISSUED:          0 USEFUL:          0 USELESS:          0
cpu0_L2C AVERAGE MISS LATENCY: 429.8 cycles
cpu0_STLB TOTAL        ACCESS:       2816 HIT:        125 MISS:       2691
cpu0_STLB LOAD         ACCESS:       2816 HIT:        125 MISS:       2691
cpu0_STLB RFO          ACCESS:          0 HIT:          0 MISS:          0
cpu0_STLB PREFETCH     ACCESS:          0 HIT:          0 MISS:          0
cpu0_STLB WRITE        ACCESS:          0 HIT:          0 MISS:          0
cpu0_STLB TRANSLATION  ACCESS:          0 HIT:          0 MISS:          0
cpu0_STLB PREFETCH REQUESTED:          0 ISSUED:          0 USEFUL:          0 USELESS:          0
cpu0_STLB AVERAGE MISS LATENCY: 209.4 cycles

DRAM Statistics

Channel 0 RQ ROW_BUFFER_HIT:      59586
  ROW_BUFFER_MISS:     112441
 AVG DBUS CONGESTED CYCLE: 3.933
WQ ROW_BUFFER_HIT: Channel 0 
  ROW_BUFFER_MISS:      53782
  FULL:     102264
