WARNING: physical memory size is smaller than virtual memory size.

*** ChampSim Multicore Out-of-Order Simulator ***
Warmup Instructions: 1000000000
Simulation Instructions: 500000000
Number of CPUs: 1
Page size: 4096

Off-chip DRAM Size: 4 GiB Channels: 1 Width: 64-bit Data Race: 3200 MT/s
Heartbeat CPU 0 instructions: 10000002 cycles: 2517166 heartbeat IPC: 3.973 cumulative IPC: 3.973 (Simulation time: 00 hr 00 min 15 sec)
Heartbeat CPU 0 instructions: 20000001 cycles: 5027976 heartbeat IPC: 3.983 cumulative IPC: 3.978 (Simulation time: 00 hr 00 min 31 sec)
Heartbeat CPU 0 instructions: 30000000 cycles: 7552465 heartbeat IPC: 3.961 cumulative IPC: 3.972 (Simulation time: 00 hr 00 min 46 sec)
Heartbeat CPU 0 instructions: 40000001 cycles: 10076975 heartbeat IPC: 3.961 cumulative IPC: 3.969 (Simulation time: 00 hr 01 min 02 sec)
Heartbeat CPU 0 instructions: 50000000 cycles: 12601200 heartbeat IPC: 3.962 cumulative IPC: 3.968 (Simulation time: 00 hr 01 min 19 sec)
Heartbeat CPU 0 instructions: 60000000 cycles: 15127455 heartbeat IPC: 3.958 cumulative IPC: 3.966 (Simulation time: 00 hr 01 min 37 sec)
Heartbeat CPU 0 instructions: 70000001 cycles: 17653888 heartbeat IPC: 3.958 cumulative IPC: 3.965 (Simulation time: 00 hr 01 min 55 sec)
Heartbeat CPU 0 instructions: 80000001 cycles: 20180356 heartbeat IPC: 3.958 cumulative IPC: 3.964 (Simulation time: 00 hr 02 min 12 sec)
Heartbeat CPU 0 instructions: 90000003 cycles: 22706546 heartbeat IPC: 3.959 cumulative IPC: 3.964 (Simulation time: 00 hr 02 min 29 sec)
Heartbeat CPU 0 instructions: 100000003 cycles: 25233848 heartbeat IPC: 3.957 cumulative IPC: 3.963 (Simulation time: 00 hr 02 min 47 sec)
Heartbeat CPU 0 instructions: 110000003 cycles: 27761824 heartbeat IPC: 3.956 cumulative IPC: 3.962 (Simulation time: 00 hr 03 min 04 sec)
Heartbeat CPU 0 instructions: 120000003 cycles: 30290307 heartbeat IPC: 3.955 cumulative IPC: 3.962 (Simulation time: 00 hr 03 min 22 sec)
Heartbeat CPU 0 instructions: 130000002 cycles: 32819057 heartbeat IPC: 3.955 cumulative IPC: 3.961 (Simulation time: 00 hr 03 min 39 sec)
Heartbeat CPU 0 instructions: 140000000 cycles: 35347556 heartbeat IPC: 3.955 cumulative IPC: 3.961 (Simulation time: 00 hr 03 min 56 sec)
Heartbeat CPU 0 instructions: 150000000 cycles: 37874899 heartbeat IPC: 3.957 cumulative IPC: 3.96 (Simulation time: 00 hr 04 min 14 sec)
Heartbeat CPU 0 instructions: 160000000 cycles: 40402597 heartbeat IPC: 3.956 cumulative IPC: 3.96 (Simulation time: 00 hr 04 min 31 sec)
Heartbeat CPU 0 instructions: 170000003 cycles: 42929319 heartbeat IPC: 3.958 cumulative IPC: 3.96 (Simulation time: 00 hr 04 min 49 sec)
Heartbeat CPU 0 instructions: 180000003 cycles: 45456957 heartbeat IPC: 3.956 cumulative IPC: 3.96 (Simulation time: 00 hr 05 min 06 sec)
Heartbeat CPU 0 instructions: 190000002 cycles: 47983947 heartbeat IPC: 3.957 cumulative IPC: 3.96 (Simulation time: 00 hr 05 min 24 sec)
Heartbeat CPU 0 instructions: 200000001 cycles: 50510821 heartbeat IPC: 3.957 cumulative IPC: 3.96 (Simulation time: 00 hr 05 min 41 sec)
Heartbeat CPU 0 instructions: 210000002 cycles: 53038392 heartbeat IPC: 3.956 cumulative IPC: 3.959 (Simulation time: 00 hr 06 min 04 sec)
Heartbeat CPU 0 instructions: 220000002 cycles: 55565113 heartbeat IPC: 3.958 cumulative IPC: 3.959 (Simulation time: 00 hr 06 min 37 sec)
Heartbeat CPU 0 instructions: 230000000 cycles: 58092547 heartbeat IPC: 3.957 cumulative IPC: 3.959 (Simulation time: 00 hr 07 min 10 sec)
Heartbeat CPU 0 instructions: 240000003 cycles: 60619611 heartbeat IPC: 3.957 cumulative IPC: 3.959 (Simulation time: 00 hr 07 min 42 sec)
Heartbeat CPU 0 instructions: 250000002 cycles: 63146618 heartbeat IPC: 3.957 cumulative IPC: 3.959 (Simulation time: 00 hr 08 min 15 sec)
Heartbeat CPU 0 instructions: 260000003 cycles: 65673946 heartbeat IPC: 3.957 cumulative IPC: 3.959 (Simulation time: 00 hr 08 min 48 sec)
Heartbeat CPU 0 instructions: 270000002 cycles: 68200865 heartbeat IPC: 3.957 cumulative IPC: 3.959 (Simulation time: 00 hr 09 min 21 sec)
Heartbeat CPU 0 instructions: 280000001 cycles: 70728039 heartbeat IPC: 3.957 cumulative IPC: 3.959 (Simulation time: 00 hr 09 min 54 sec)
Heartbeat CPU 0 instructions: 290000001 cycles: 73255344 heartbeat IPC: 3.957 cumulative IPC: 3.959 (Simulation time: 00 hr 10 min 27 sec)
Heartbeat CPU 0 instructions: 300000000 cycles: 75782331 heartbeat IPC: 3.957 cumulative IPC: 3.959 (Simulation time: 00 hr 11 min 00 sec)
Heartbeat CPU 0 instructions: 310000000 cycles: 78309567 heartbeat IPC: 3.957 cumulative IPC: 3.959 (Simulation time: 00 hr 11 min 32 sec)
Heartbeat CPU 0 instructions: 320000002 cycles: 80836617 heartbeat IPC: 3.957 cumulative IPC: 3.959 (Simulation time: 00 hr 12 min 05 sec)
Heartbeat CPU 0 instructions: 330000001 cycles: 83364087 heartbeat IPC: 3.957 cumulative IPC: 3.959 (Simulation time: 00 hr 12 min 38 sec)
Heartbeat CPU 0 instructions: 340000001 cycles: 85891658 heartbeat IPC: 3.956 cumulative IPC: 3.958 (Simulation time: 00 hr 13 min 11 sec)
Heartbeat CPU 0 instructions: 350000000 cycles: 88420094 heartbeat IPC: 3.955 cumulative IPC: 3.958 (Simulation time: 00 hr 13 min 44 sec)
Heartbeat CPU 0 instructions: 360000001 cycles: 90948981 heartbeat IPC: 3.954 cumulative IPC: 3.958 (Simulation time: 00 hr 14 min 16 sec)
Heartbeat CPU 0 instructions: 370000002 cycles: 93477391 heartbeat IPC: 3.955 cumulative IPC: 3.958 (Simulation time: 00 hr 14 min 49 sec)
Heartbeat CPU 0 instructions: 380000000 cycles: 96005315 heartbeat IPC: 3.956 cumulative IPC: 3.958 (Simulation time: 00 hr 15 min 22 sec)
Heartbeat CPU 0 instructions: 390000000 cycles: 98532228 heartbeat IPC: 3.957 cumulative IPC: 3.958 (Simulation time: 00 hr 15 min 55 sec)
Heartbeat CPU 0 instructions: 400000003 cycles: 101058795 heartbeat IPC: 3.958 cumulative IPC: 3.958 (Simulation time: 00 hr 16 min 28 sec)
Heartbeat CPU 0 instructions: 410000002 cycles: 103585066 heartbeat IPC: 3.958 cumulative IPC: 3.958 (Simulation time: 00 hr 17 min 01 sec)
Heartbeat CPU 0 instructions: 420000004 cycles: 106111489 heartbeat IPC: 3.958 cumulative IPC: 3.958 (Simulation time: 00 hr 17 min 35 sec)
Heartbeat CPU 0 instructions: 430000001 cycles: 108637424 heartbeat IPC: 3.959 cumulative IPC: 3.958 (Simulation time: 00 hr 18 min 08 sec)
Heartbeat CPU 0 instructions: 440000003 cycles: 111161743 heartbeat IPC: 3.961 cumulative IPC: 3.958 (Simulation time: 00 hr 18 min 41 sec)
Heartbeat CPU 0 instructions: 450000004 cycles: 113686133 heartbeat IPC: 3.961 cumulative IPC: 3.958 (Simulation time: 00 hr 19 min 14 sec)
Heartbeat CPU 0 instructions: 460000001 cycles: 116210578 heartbeat IPC: 3.961 cumulative IPC: 3.958 (Simulation time: 00 hr 19 min 47 sec)
Heartbeat CPU 0 instructions: 470000003 cycles: 118718875 heartbeat IPC: 3.987 cumulative IPC: 3.959 (Simulation time: 00 hr 20 min 23 sec)
Heartbeat CPU 0 instructions: 480000002 cycles: 121239891 heartbeat IPC: 3.967 cumulative IPC: 3.959 (Simulation time: 00 hr 20 min 57 sec)
Heartbeat CPU 0 instructions: 490000001 cycles: 123767765 heartbeat IPC: 3.956 cumulative IPC: 3.959 (Simulation time: 00 hr 21 min 30 sec)
Heartbeat CPU 0 instructions: 500000003 cycles: 126294840 heartbeat IPC: 3.957 cumulative IPC: 3.959 (Simulation time: 00 hr 22 min 03 sec)
Heartbeat CPU 0 instructions: 510000003 cycles: 128820790 heartbeat IPC: 3.959 cumulative IPC: 3.959 (Simulation time: 00 hr 22 min 36 sec)
Heartbeat CPU 0 instructions: 520000001 cycles: 131346972 heartbeat IPC: 3.959 cumulative IPC: 3.959 (Simulation time: 00 hr 23 min 09 sec)
Heartbeat CPU 0 instructions: 530000001 cycles: 133864343 heartbeat IPC: 3.972 cumulative IPC: 3.959 (Simulation time: 00 hr 23 min 43 sec)
Heartbeat CPU 0 instructions: 540000003 cycles: 136380535 heartbeat IPC: 3.974 cumulative IPC: 3.96 (Simulation time: 00 hr 24 min 17 sec)
Heartbeat CPU 0 instructions: 550000003 cycles: 138896807 heartbeat IPC: 3.974 cumulative IPC: 3.96 (Simulation time: 00 hr 24 min 51 sec)
Heartbeat CPU 0 instructions: 560000003 cycles: 141413317 heartbeat IPC: 3.974 cumulative IPC: 3.96 (Simulation time: 00 hr 25 min 25 sec)
Heartbeat CPU 0 instructions: 570000003 cycles: 143929574 heartbeat IPC: 3.974 cumulative IPC: 3.96 (Simulation time: 00 hr 25 min 59 sec)
Heartbeat CPU 0 instructions: 580000003 cycles: 146445839 heartbeat IPC: 3.974 cumulative IPC: 3.961 (Simulation time: 00 hr 26 min 33 sec)
Heartbeat CPU 0 instructions: 590000001 cycles: 148961600 heartbeat IPC: 3.975 cumulative IPC: 3.961 (Simulation time: 00 hr 27 min 07 sec)
Heartbeat CPU 0 instructions: 600000001 cycles: 151477041 heartbeat IPC: 3.975 cumulative IPC: 3.961 (Simulation time: 00 hr 27 min 41 sec)
Heartbeat CPU 0 instructions: 610000001 cycles: 153992482 heartbeat IPC: 3.975 cumulative IPC: 3.961 (Simulation time: 00 hr 28 min 07 sec)
Heartbeat CPU 0 instructions: 620000001 cycles: 156507923 heartbeat IPC: 3.975 cumulative IPC: 3.961 (Simulation time: 00 hr 28 min 42 sec)
Heartbeat CPU 0 instructions: 630000001 cycles: 159023364 heartbeat IPC: 3.975 cumulative IPC: 3.962 (Simulation time: 00 hr 29 min 16 sec)
Heartbeat CPU 0 instructions: 640000002 cycles: 161540313 heartbeat IPC: 3.973 cumulative IPC: 3.962 (Simulation time: 00 hr 29 min 50 sec)
Heartbeat CPU 0 instructions: 650000003 cycles: 164066153 heartbeat IPC: 3.959 cumulative IPC: 3.962 (Simulation time: 00 hr 30 min 23 sec)
Heartbeat CPU 0 instructions: 660000003 cycles: 166593162 heartbeat IPC: 3.957 cumulative IPC: 3.962 (Simulation time: 00 hr 30 min 57 sec)
Heartbeat CPU 0 instructions: 670000003 cycles: 169115729 heartbeat IPC: 3.964 cumulative IPC: 3.962 (Simulation time: 00 hr 31 min 30 sec)
Heartbeat CPU 0 instructions: 680000003 cycles: 171643629 heartbeat IPC: 3.956 cumulative IPC: 3.962 (Simulation time: 00 hr 32 min 04 sec)
Heartbeat CPU 0 instructions: 690000001 cycles: 174171876 heartbeat IPC: 3.955 cumulative IPC: 3.962 (Simulation time: 00 hr 32 min 37 sec)
Heartbeat CPU 0 instructions: 700000003 cycles: 176700124 heartbeat IPC: 3.955 cumulative IPC: 3.962 (Simulation time: 00 hr 33 min 10 sec)
Heartbeat CPU 0 instructions: 710000000 cycles: 179228279 heartbeat IPC: 3.955 cumulative IPC: 3.961 (Simulation time: 00 hr 33 min 43 sec)
Heartbeat CPU 0 instructions: 720000001 cycles: 181754871 heartbeat IPC: 3.958 cumulative IPC: 3.961 (Simulation time: 00 hr 34 min 17 sec)
Heartbeat CPU 0 instructions: 730000003 cycles: 184260654 heartbeat IPC: 3.991 cumulative IPC: 3.962 (Simulation time: 00 hr 34 min 42 sec)
Heartbeat CPU 0 instructions: 740000000 cycles: 186785106 heartbeat IPC: 3.961 cumulative IPC: 3.962 (Simulation time: 00 hr 35 min 00 sec)
Heartbeat CPU 0 instructions: 750000001 cycles: 189313836 heartbeat IPC: 3.955 cumulative IPC: 3.962 (Simulation time: 00 hr 35 min 18 sec)
Heartbeat CPU 0 instructions: 760000001 cycles: 191842303 heartbeat IPC: 3.955 cumulative IPC: 3.962 (Simulation time: 00 hr 35 min 35 sec)
Heartbeat CPU 0 instructions: 770000000 cycles: 194371047 heartbeat IPC: 3.955 cumulative IPC: 3.961 (Simulation time: 00 hr 35 min 53 sec)
Heartbeat CPU 0 instructions: 780000001 cycles: 196898830 heartbeat IPC: 3.956 cumulative IPC: 3.961 (Simulation time: 00 hr 36 min 10 sec)
Heartbeat CPU 0 instructions: 790000000 cycles: 199426501 heartbeat IPC: 3.956 cumulative IPC: 3.961 (Simulation time: 00 hr 36 min 28 sec)
Heartbeat CPU 0 instructions: 800000003 cycles: 201951248 heartbeat IPC: 3.961 cumulative IPC: 3.961 (Simulation time: 00 hr 36 min 50 sec)
Heartbeat CPU 0 instructions: 810000001 cycles: 204472899 heartbeat IPC: 3.966 cumulative IPC: 3.961 (Simulation time: 00 hr 37 min 09 sec)
Heartbeat CPU 0 instructions: 820000000 cycles: 206993621 heartbeat IPC: 3.967 cumulative IPC: 3.961 (Simulation time: 00 hr 37 min 32 sec)
Heartbeat CPU 0 instructions: 830000001 cycles: 209518196 heartbeat IPC: 3.961 cumulative IPC: 3.961 (Simulation time: 00 hr 38 min 04 sec)
Heartbeat CPU 0 instructions: 840000000 cycles: 212042730 heartbeat IPC: 3.961 cumulative IPC: 3.961 (Simulation time: 00 hr 38 min 22 sec)
Heartbeat CPU 0 instructions: 850000001 cycles: 214567304 heartbeat IPC: 3.961 cumulative IPC: 3.961 (Simulation time: 00 hr 38 min 53 sec)
Heartbeat CPU 0 instructions: 860000000 cycles: 217091879 heartbeat IPC: 3.961 cumulative IPC: 3.961 (Simulation time: 00 hr 39 min 26 sec)
Heartbeat CPU 0 instructions: 870000001 cycles: 219616454 heartbeat IPC: 3.961 cumulative IPC: 3.961 (Simulation time: 00 hr 39 min 59 sec)
Heartbeat CPU 0 instructions: 880000002 cycles: 222141029 heartbeat IPC: 3.961 cumulative IPC: 3.961 (Simulation time: 00 hr 40 min 32 sec)
Heartbeat CPU 0 instructions: 890000001 cycles: 224665563 heartbeat IPC: 3.961 cumulative IPC: 3.961 (Simulation time: 00 hr 41 min 05 sec)
Heartbeat CPU 0 instructions: 900000001 cycles: 227190087 heartbeat IPC: 3.961 cumulative IPC: 3.961 (Simulation time: 00 hr 41 min 38 sec)
Heartbeat CPU 0 instructions: 910000003 cycles: 229714613 heartbeat IPC: 3.961 cumulative IPC: 3.961 (Simulation time: 00 hr 42 min 11 sec)
Heartbeat CPU 0 instructions: 920000003 cycles: 232239139 heartbeat IPC: 3.961 cumulative IPC: 3.961 (Simulation time: 00 hr 42 min 44 sec)
Heartbeat CPU 0 instructions: 930000001 cycles: 234757745 heartbeat IPC: 3.97 cumulative IPC: 3.962 (Simulation time: 00 hr 43 min 18 sec)
Heartbeat CPU 0 instructions: 940000000 cycles: 237282502 heartbeat IPC: 3.961 cumulative IPC: 3.962 (Simulation time: 00 hr 43 min 51 sec)
Heartbeat CPU 0 instructions: 950000000 cycles: 239806313 heartbeat IPC: 3.962 cumulative IPC: 3.962 (Simulation time: 00 hr 44 min 24 sec)
Heartbeat CPU 0 instructions: 960000000 cycles: 242331388 heartbeat IPC: 3.96 cumulative IPC: 3.962 (Simulation time: 00 hr 44 min 46 sec)
Heartbeat CPU 0 instructions: 970000001 cycles: 244859411 heartbeat IPC: 3.956 cumulative IPC: 3.961 (Simulation time: 00 hr 45 min 17 sec)
Heartbeat CPU 0 instructions: 980000002 cycles: 247387857 heartbeat IPC: 3.955 cumulative IPC: 3.961 (Simulation time: 00 hr 45 min 50 sec)
Heartbeat CPU 0 instructions: 990000001 cycles: 249916538 heartbeat IPC: 3.955 cumulative IPC: 3.961 (Simulation time: 00 hr 46 min 22 sec)
Heartbeat CPU 0 instructions: 1000000002 cycles: 252445125 heartbeat IPC: 3.955 cumulative IPC: 3.961 (Simulation time: 00 hr 46 min 55 sec)
Warmup finished CPU 0 instructions: 1000000002 cycles: 252445126 cumulative IPC: 3.961 (Simulation time: 00 hr 46 min 55 sec)
Warmup complete CPU 0 instructions: 1000000002 cycles: 252445126 cumulative IPC: 3.961 (Simulation time: 00 hr 46 min 55 sec)
Heartbeat CPU 0 instructions: 1010000000 cycles: 256605857 heartbeat IPC: 2.403 cumulative IPC: 2.403 (Simulation time: 00 hr 47 min 46 sec)
Heartbeat CPU 0 instructions: 1020000004 cycles: 261642365 heartbeat IPC: 1.986 cumulative IPC: 2.175 (Simulation time: 00 hr 48 min 45 sec)
Heartbeat CPU 0 instructions: 1030000002 cycles: 265067828 heartbeat IPC: 2.919 cumulative IPC: 2.377 (Simulation time: 00 hr 49 min 09 sec)
Heartbeat CPU 0 instructions: 1040000003 cycles: 268490931 heartbeat IPC: 2.921 cumulative IPC: 2.493 (Simulation time: 00 hr 49 min 32 sec)
Heartbeat CPU 0 instructions: 1050000003 cycles: 271915620 heartbeat IPC: 2.92 cumulative IPC: 2.568 (Simulation time: 00 hr 49 min 54 sec)
Heartbeat CPU 0 instructions: 1060000003 cycles: 275443366 heartbeat IPC: 2.835 cumulative IPC: 2.609 (Simulation time: 00 hr 50 min 18 sec)
Heartbeat CPU 0 instructions: 1070000000 cycles: 278938881 heartbeat IPC: 2.861 cumulative IPC: 2.642 (Simulation time: 00 hr 50 min 42 sec)
Heartbeat CPU 0 instructions: 1080000000 cycles: 282399826 heartbeat IPC: 2.889 cumulative IPC: 2.671 (Simulation time: 00 hr 51 min 09 sec)
Heartbeat CPU 0 instructions: 1090000000 cycles: 285842214 heartbeat IPC: 2.905 cumulative IPC: 2.695 (Simulation time: 00 hr 51 min 34 sec)
Heartbeat CPU 0 instructions: 1100000001 cycles: 289298284 heartbeat IPC: 2.893 cumulative IPC: 2.713 (Simulation time: 00 hr 51 min 58 sec)
Heartbeat CPU 0 instructions: 1110000001 cycles: 292773114 heartbeat IPC: 2.878 cumulative IPC: 2.728 (Simulation time: 00 hr 52 min 22 sec)
Heartbeat CPU 0 instructions: 1120000002 cycles: 296263423 heartbeat IPC: 2.865 cumulative IPC: 2.739 (Simulation time: 00 hr 52 min 45 sec)
Heartbeat CPU 0 instructions: 1130000002 cycles: 299696157 heartbeat IPC: 2.913 cumulative IPC: 2.751 (Simulation time: 00 hr 53 min 08 sec)
Heartbeat CPU 0 instructions: 1140000001 cycles: 303164866 heartbeat IPC: 2.883 cumulative IPC: 2.76 (Simulation time: 00 hr 53 min 31 sec)
Heartbeat CPU 0 instructions: 1150000000 cycles: 306654358 heartbeat IPC: 2.866 cumulative IPC: 2.767 (Simulation time: 00 hr 53 min 59 sec)
Heartbeat CPU 0 instructions: 1160000000 cycles: 310114541 heartbeat IPC: 2.89 cumulative IPC: 2.774 (Simulation time: 00 hr 54 min 41 sec)
Heartbeat CPU 0 instructions: 1170000001 cycles: 313605143 heartbeat IPC: 2.865 cumulative IPC: 2.78 (Simulation time: 00 hr 55 min 24 sec)
Heartbeat CPU 0 instructions: 1180000000 cycles: 317063593 heartbeat IPC: 2.891 cumulative IPC: 2.786 (Simulation time: 00 hr 56 min 06 sec)
Heartbeat CPU 0 instructions: 1190000002 cycles: 320553285 heartbeat IPC: 2.866 cumulative IPC: 2.79 (Simulation time: 00 hr 56 min 48 sec)
Heartbeat CPU 0 instructions: 1200000004 cycles: 324011448 heartbeat IPC: 2.892 cumulative IPC: 2.795 (Simulation time: 00 hr 57 min 30 sec)
Heartbeat CPU 0 instructions: 1210000001 cycles: 327479794 heartbeat IPC: 2.883 cumulative IPC: 2.799 (Simulation time: 00 hr 58 min 13 sec)
Heartbeat CPU 0 instructions: 1220000003 cycles: 330966168 heartbeat IPC: 2.868 cumulative IPC: 2.802 (Simulation time: 00 hr 58 min 55 sec)
Heartbeat CPU 0 instructions: 1230000001 cycles: 334424273 heartbeat IPC: 2.892 cumulative IPC: 2.806 (Simulation time: 00 hr 59 min 30 sec)
Heartbeat CPU 0 instructions: 1240000004 cycles: 337911456 heartbeat IPC: 2.868 cumulative IPC: 2.808 (Simulation time: 00 hr 59 min 53 sec)
Heartbeat CPU 0 instructions: 1250000004 cycles: 341343907 heartbeat IPC: 2.913 cumulative IPC: 2.812 (Simulation time: 01 hr 00 min 17 sec)
Heartbeat CPU 0 instructions: 1260000001 cycles: 344821315 heartbeat IPC: 2.876 cumulative IPC: 2.815 (Simulation time: 01 hr 00 min 41 sec)
Heartbeat CPU 0 instructions: 1270000000 cycles: 348309208 heartbeat IPC: 2.867 cumulative IPC: 2.816 (Simulation time: 01 hr 01 min 10 sec)
Heartbeat CPU 0 instructions: 1280000000 cycles: 351746569 heartbeat IPC: 2.909 cumulative IPC: 2.82 (Simulation time: 01 hr 01 min 53 sec)
Heartbeat CPU 0 instructions: 1290000002 cycles: 355244099 heartbeat IPC: 2.859 cumulative IPC: 2.821 (Simulation time: 01 hr 02 min 36 sec)
Heartbeat CPU 0 instructions: 1300000000 cycles: 358703143 heartbeat IPC: 2.891 cumulative IPC: 2.823 (Simulation time: 01 hr 03 min 19 sec)
Heartbeat CPU 0 instructions: 1310000003 cycles: 362200006 heartbeat IPC: 2.86 cumulative IPC: 2.824 (Simulation time: 01 hr 04 min 01 sec)
Heartbeat CPU 0 instructions: 1320000000 cycles: 365733567 heartbeat IPC: 2.83 cumulative IPC: 2.825 (Simulation time: 01 hr 04 min 44 sec)
Heartbeat CPU 0 instructions: 1330000000 cycles: 369159314 heartbeat IPC: 2.919 cumulative IPC: 2.827 (Simulation time: 01 hr 05 min 26 sec)
Heartbeat CPU 0 instructions: 1340000004 cycles: 372582217 heartbeat IPC: 2.921 cumulative IPC: 2.83 (Simulation time: 01 hr 06 min 08 sec)
Heartbeat CPU 0 instructions: 1350000002 cycles: 376008146 heartbeat IPC: 2.919 cumulative IPC: 2.833 (Simulation time: 01 hr 06 min 50 sec)
Heartbeat CPU 0 instructions: 1360000004 cycles: 380460244 heartbeat IPC: 2.246 cumulative IPC: 2.812 (Simulation time: 01 hr 07 min 43 sec)
Heartbeat CPU 0 instructions: 1370000004 cycles: 385139068 heartbeat IPC: 2.137 cumulative IPC: 2.788 (Simulation time: 01 hr 08 min 40 sec)
Heartbeat CPU 0 instructions: 1380000000 cycles: 388606853 heartbeat IPC: 2.884 cumulative IPC: 2.791 (Simulation time: 01 hr 09 min 22 sec)
Heartbeat CPU 0 instructions: 1390000002 cycles: 392074448 heartbeat IPC: 2.884 cumulative IPC: 2.793 (Simulation time: 01 hr 10 min 04 sec)
Heartbeat CPU 0 instructions: 1400000004 cycles: 395542929 heartbeat IPC: 2.883 cumulative IPC: 2.795 (Simulation time: 01 hr 10 min 40 sec)
Heartbeat CPU 0 instructions: 1410000004 cycles: 399023403 heartbeat IPC: 2.873 cumulative IPC: 2.797 (Simulation time: 01 hr 11 min 04 sec)
Heartbeat CPU 0 instructions: 1420000002 cycles: 402485549 heartbeat IPC: 2.888 cumulative IPC: 2.799 (Simulation time: 01 hr 11 min 27 sec)
Heartbeat CPU 0 instructions: 1430000000 cycles: 405946803 heartbeat IPC: 2.889 cumulative IPC: 2.801 (Simulation time: 01 hr 11 min 50 sec)
Heartbeat CPU 0 instructions: 1440000000 cycles: 409406882 heartbeat IPC: 2.89 cumulative IPC: 2.803 (Simulation time: 01 hr 12 min 13 sec)
Heartbeat CPU 0 instructions: 1450000002 cycles: 412874882 heartbeat IPC: 2.884 cumulative IPC: 2.805 (Simulation time: 01 hr 12 min 36 sec)
Heartbeat CPU 0 instructions: 1460000003 cycles: 416307177 heartbeat IPC: 2.914 cumulative IPC: 2.807 (Simulation time: 01 hr 12 min 59 sec)
Heartbeat CPU 0 instructions: 1470000000 cycles: 419754930 heartbeat IPC: 2.9 cumulative IPC: 2.809 (Simulation time: 01 hr 13 min 21 sec)
Heartbeat CPU 0 instructions: 1480000000 cycles: 423192523 heartbeat IPC: 2.909 cumulative IPC: 2.811 (Simulation time: 01 hr 13 min 44 sec)
Heartbeat CPU 0 instructions: 1490000002 cycles: 426661724 heartbeat IPC: 2.883 cumulative IPC: 2.813 (Simulation time: 01 hr 14 min 06 sec)
Heartbeat CPU 0 instructions: 1500000000 cycles: 430106543 heartbeat IPC: 2.903 cumulative IPC: 2.814 (Simulation time: 01 hr 14 min 28 sec)
Simulation finished CPU 0 instructions: 500000003 cycles: 177661419 cumulative IPC: 2.814 (Simulation time: 01 hr 14 min 28 sec)
Simulation complete CPU 0 instructions: 500000003 cycles: 177661419 cumulative IPC: 2.814 (Simulation time: 01 hr 14 min 28 sec)

ChampSim completed all CPUs

=== Simulation ===
CPU 0 runs traces/603.bwaves_s-1080B.champsimtrace.xz
Region of Interest Statistics

CPU 0 cumulative IPC: 2.814 instructions: 500000003 cycles: 177661419
CPU 0 Branch Prediction Accuracy: 95.09% MPKI: 7.131 Average ROB Occupancy at Mispredict: 43.07
Branch type MPKI
BRANCH_DIRECT_JUMP: 0.186
BRANCH_INDIRECT: 0
BRANCH_CONDITIONAL: 6.81
BRANCH_DIRECT_CALL: 0
BRANCH_INDIRECT_CALL: 0
BRANCH_RETURN: 0.131

LLC TOTAL        ACCESS:     328057 HIT:     156011 MISS:     172046
LLC LOAD         ACCESS:      15728 HIT:         11 MISS:      15717
LLC RFO          ACCESS:     156303 HIT:         15 MISS:     156288
LLC PREFETCH     ACCESS:          0 HIT:          0 MISS:          0
LLC WRITE        ACCESS:     156005 HIT:     155982 MISS:         23
LLC TRANSLATION  ACCESS:         21 HIT:          3 MISS:         18
LLC PREFETCH REQUESTED:          0 ISSUED:          0 USEFUL:          0 USELESS:          0
LLC AVERAGE MISS LATENCY: 407.5 cycles
cpu0_DTLB TOTAL        ACCESS:   81054329 HIT:   81030406 MISS:      23923
cpu0_DTLB LOAD         ACCESS:   81054329 HIT:   81030406 MISS:      23923
cpu0_DTLB RFO          ACCESS:          0 HIT:          0 MISS:          0
cpu0_DTLB PREFETCH     ACCESS:          0 HIT:          0 MISS:          0
cpu0_DTLB WRITE        ACCESS:          0 HIT:          0 MISS:          0
cpu0_DTLB TRANSLATION  ACCESS:          0 HIT:          0 MISS:          0
cpu0_DTLB PREFETCH REQUESTED:          0 ISSUED:          0 USEFUL:          0 USELESS:          0
cpu0_DTLB AVERAGE MISS LATENCY: 19.77 cycles
cpu0_ITLB TOTAL        ACCESS:    1898370 HIT:    1898370 MISS:          0
cpu0_ITLB LOAD         ACCESS:    1898370 HIT:    1898370 MISS:          0
cpu0_ITLB RFO          ACCESS:          0 HIT:          0 MISS:          0
cpu0_ITLB PREFETCH     ACCESS:          0 HIT:          0 MISS:          0
cpu0_ITLB WRITE        ACCESS:          0 HIT:          0 MISS:          0
cpu0_ITLB TRANSLATION  ACCESS:          0 HIT:          0 MISS:          0
cpu0_ITLB PREFETCH REQUESTED:          0 ISSUED:          0 USEFUL:          0 USELESS:          0
cpu0_ITLB AVERAGE MISS LATENCY: -nan cycles
cpu0_L1D TOTAL        ACCESS:  125403460 HIT:  124211575 MISS:    1191885
cpu0_L1D LOAD         ACCESS:  104277095 HIT:  104233813 MISS:      43282
cpu0_L1D RFO          ACCESS:          0 HIT:          0 MISS:          0
cpu0_L1D PREFETCH     ACCESS:          0 HIT:          0 MISS:          0
cpu0_L1D WRITE        ACCESS:   21123669 HIT:   19975331 MISS:    1148338
cpu0_L1D TRANSLATION  ACCESS:       2696 HIT:       2431 MISS:        265
cpu0_L1D PREFETCH REQUESTED:          0 ISSUED:          0 USEFUL:          0 USELESS:          0
cpu0_L1D AVERAGE MISS LATENCY: 59.09 cycles
cpu0_L1I TOTAL        ACCESS:    2196082 HIT:    2196082 MISS:          0
cpu0_L1I LOAD         ACCESS:    2196082 HIT:    2196082 MISS:          0
cpu0_L1I RFO          ACCESS:          0 HIT:          0 MISS:          0
cpu0_L1I PREFETCH     ACCESS:          0 HIT:          0 MISS:          0
cpu0_L1I WRITE        ACCESS:          0 HIT:          0 MISS:          0
cpu0_L1I TRANSLATION  ACCESS:          0 HIT:          0 MISS:          0
cpu0_L1I PREFETCH REQUESTED:          0 ISSUED:          0 USEFUL:          0 USELESS:          0
cpu0_L1I AVERAGE MISS LATENCY: -nan cycles
cpu0_L2C TOTAL        ACCESS:     331668 HIT:     159595 MISS:     172073
cpu0_L2C LOAD         ACCESS:      16947 HIT:       1219 MISS:      15728
cpu0_L2C RFO          ACCESS:     157518 HIT:       1215 MISS:     156303
cpu0_L2C PREFETCH     ACCESS:          0 HIT:          0 MISS:          0
cpu0_L2C WRITE        ACCESS:     156938 HIT:     156917 MISS:         21
cpu0_L2C TRANSLATION  ACCESS:        265 HIT:        244 MISS:         21
cpu0_L2C PREFETCH REQUESTED:          0 ISSUED:          0 USEFUL:          0 USELESS:          0
cpu0_L2C AVERAGE MISS LATENCY: 428.4 cycles
cpu0_STLB TOTAL        ACCESS:       2813 HIT:        122 MISS:       2691
cpu0_STLB LOAD         ACCESS:       2813 HIT:        122 MISS:       2691
cpu0_STLB RFO          ACCESS:          0 HIT:          0 MISS:          0
cpu0_STLB PREFETCH     ACCESS:          0 HIT:          0 MISS:          0
cpu0_STLB WRITE        ACCESS:          0 HIT:          0 MISS:          0
cpu0_STLB TRANSLATION  ACCESS:          0 HIT:          0 MISS:          0
cpu0_STLB PREFETCH REQUESTED:          0 ISSUED:          0 USEFUL:          0 USELESS:          0
cpu0_STLB AVERAGE MISS LATENCY: 209.7 cycles

DRAM Statistics

Channel 0 RQ ROW_BUFFER_HIT:      59584
  ROW_BUFFER_MISS:     112439
 AVG DBUS CONGESTED CYCLE: 3.932
WQ ROW_BUFFER_HIT: Channel 0 
  ROW_BUFFER_MISS:      54646
  FULL:     101346
