WARNING: physical memory size is smaller than virtual memory size.

*** ChampSim Multicore Out-of-Order Simulator ***
Warmup Instructions: 1000000000
Simulation Instructions: 500000000
Number of CPUs: 1
Page size: 4096

Off-chip DRAM Size: 4 GiB Channels: 1 Width: 64-bit Data Race: 3200 MT/s
Heartbeat CPU 0 instructions: 10000002 cycles: 2518294 heartbeat IPC: 3.971 cumulative IPC: 3.971 (Simulation time: 00 hr 00 min 13 sec)
Heartbeat CPU 0 instructions: 20000002 cycles: 5030035 heartbeat IPC: 3.981 cumulative IPC: 3.976 (Simulation time: 00 hr 00 min 28 sec)
Heartbeat CPU 0 instructions: 30000000 cycles: 7556622 heartbeat IPC: 3.958 cumulative IPC: 3.97 (Simulation time: 00 hr 00 min 41 sec)
Heartbeat CPU 0 instructions: 40000001 cycles: 10083233 heartbeat IPC: 3.958 cumulative IPC: 3.967 (Simulation time: 00 hr 00 min 54 sec)
Heartbeat CPU 0 instructions: 50000000 cycles: 12609524 heartbeat IPC: 3.958 cumulative IPC: 3.965 (Simulation time: 00 hr 01 min 08 sec)
Heartbeat CPU 0 instructions: 60000000 cycles: 15137862 heartbeat IPC: 3.955 cumulative IPC: 3.964 (Simulation time: 00 hr 01 min 21 sec)
Heartbeat CPU 0 instructions: 70000001 cycles: 17666393 heartbeat IPC: 3.955 cumulative IPC: 3.962 (Simulation time: 00 hr 01 min 34 sec)
Heartbeat CPU 0 instructions: 80000001 cycles: 20194954 heartbeat IPC: 3.955 cumulative IPC: 3.961 (Simulation time: 00 hr 01 min 48 sec)
Heartbeat CPU 0 instructions: 90000003 cycles: 22723223 heartbeat IPC: 3.955 cumulative IPC: 3.961 (Simulation time: 00 hr 02 min 01 sec)
Heartbeat CPU 0 instructions: 100000003 cycles: 25252638 heartbeat IPC: 3.953 cumulative IPC: 3.96 (Simulation time: 00 hr 02 min 15 sec)
Heartbeat CPU 0 instructions: 110000003 cycles: 27782762 heartbeat IPC: 3.952 cumulative IPC: 3.959 (Simulation time: 00 hr 02 min 28 sec)
Heartbeat CPU 0 instructions: 120000003 cycles: 30313420 heartbeat IPC: 3.952 cumulative IPC: 3.959 (Simulation time: 00 hr 02 min 42 sec)
Heartbeat CPU 0 instructions: 130000002 cycles: 32844359 heartbeat IPC: 3.951 cumulative IPC: 3.958 (Simulation time: 00 hr 02 min 55 sec)
Heartbeat CPU 0 instructions: 140000000 cycles: 35375030 heartbeat IPC: 3.952 cumulative IPC: 3.958 (Simulation time: 00 hr 03 min 09 sec)
Heartbeat CPU 0 instructions: 150000001 cycles: 37904494 heartbeat IPC: 3.953 cumulative IPC: 3.957 (Simulation time: 00 hr 03 min 22 sec)
Heartbeat CPU 0 instructions: 160000000 cycles: 40434329 heartbeat IPC: 3.953 cumulative IPC: 3.957 (Simulation time: 00 hr 03 min 35 sec)
Heartbeat CPU 0 instructions: 170000003 cycles: 42963133 heartbeat IPC: 3.954 cumulative IPC: 3.957 (Simulation time: 00 hr 03 min 49 sec)
Heartbeat CPU 0 instructions: 180000003 cycles: 45492906 heartbeat IPC: 3.953 cumulative IPC: 3.957 (Simulation time: 00 hr 04 min 02 sec)
Heartbeat CPU 0 instructions: 190000002 cycles: 48021995 heartbeat IPC: 3.954 cumulative IPC: 3.957 (Simulation time: 00 hr 04 min 16 sec)
Heartbeat CPU 0 instructions: 200000001 cycles: 50550958 heartbeat IPC: 3.954 cumulative IPC: 3.956 (Simulation time: 00 hr 04 min 29 sec)
Heartbeat CPU 0 instructions: 210000002 cycles: 53080653 heartbeat IPC: 3.953 cumulative IPC: 3.956 (Simulation time: 00 hr 04 min 42 sec)
Heartbeat CPU 0 instructions: 220000002 cycles: 55609456 heartbeat IPC: 3.954 cumulative IPC: 3.956 (Simulation time: 00 hr 04 min 55 sec)
Heartbeat CPU 0 instructions: 230000000 cycles: 58139014 heartbeat IPC: 3.953 cumulative IPC: 3.956 (Simulation time: 00 hr 05 min 09 sec)
Heartbeat CPU 0 instructions: 240000003 cycles: 60668180 heartbeat IPC: 3.954 cumulative IPC: 3.956 (Simulation time: 00 hr 05 min 22 sec)
Heartbeat CPU 0 instructions: 250000002 cycles: 63197287 heartbeat IPC: 3.954 cumulative IPC: 3.956 (Simulation time: 00 hr 05 min 35 sec)
Heartbeat CPU 0 instructions: 260000003 cycles: 65726725 heartbeat IPC: 3.953 cumulative IPC: 3.956 (Simulation time: 00 hr 05 min 48 sec)
Heartbeat CPU 0 instructions: 270000002 cycles: 68255738 heartbeat IPC: 3.954 cumulative IPC: 3.956 (Simulation time: 00 hr 06 min 01 sec)
Heartbeat CPU 0 instructions: 280000001 cycles: 70785021 heartbeat IPC: 3.954 cumulative IPC: 3.956 (Simulation time: 00 hr 06 min 15 sec)
Heartbeat CPU 0 instructions: 290000001 cycles: 73314442 heartbeat IPC: 3.953 cumulative IPC: 3.956 (Simulation time: 00 hr 06 min 28 sec)
Heartbeat CPU 0 instructions: 300000000 cycles: 75843527 heartbeat IPC: 3.954 cumulative IPC: 3.956 (Simulation time: 00 hr 06 min 41 sec)
Heartbeat CPU 0 instructions: 310000000 cycles: 78372875 heartbeat IPC: 3.954 cumulative IPC: 3.955 (Simulation time: 00 hr 06 min 54 sec)
Heartbeat CPU 0 instructions: 320000002 cycles: 80902020 heartbeat IPC: 3.954 cumulative IPC: 3.955 (Simulation time: 00 hr 07 min 07 sec)
Heartbeat CPU 0 instructions: 330000001 cycles: 83431615 heartbeat IPC: 3.953 cumulative IPC: 3.955 (Simulation time: 00 hr 07 min 21 sec)
Heartbeat CPU 0 instructions: 340000001 cycles: 85961318 heartbeat IPC: 3.953 cumulative IPC: 3.955 (Simulation time: 00 hr 07 min 34 sec)
Heartbeat CPU 0 instructions: 350000000 cycles: 88491930 heartbeat IPC: 3.952 cumulative IPC: 3.955 (Simulation time: 00 hr 07 min 47 sec)
Heartbeat CPU 0 instructions: 360000001 cycles: 91023009 heartbeat IPC: 3.951 cumulative IPC: 3.955 (Simulation time: 00 hr 08 min 01 sec)
Heartbeat CPU 0 instructions: 370000002 cycles: 93553587 heartbeat IPC: 3.952 cumulative IPC: 3.955 (Simulation time: 00 hr 08 min 14 sec)
Heartbeat CPU 0 instructions: 380000000 cycles: 96083663 heartbeat IPC: 3.952 cumulative IPC: 3.955 (Simulation time: 00 hr 08 min 27 sec)
Heartbeat CPU 0 instructions: 390000000 cycles: 98612668 heartbeat IPC: 3.954 cumulative IPC: 3.955 (Simulation time: 00 hr 08 min 40 sec)
Heartbeat CPU 0 instructions: 400000003 cycles: 101141335 heartbeat IPC: 3.955 cumulative IPC: 3.955 (Simulation time: 00 hr 08 min 53 sec)
Heartbeat CPU 0 instructions: 410000002 cycles: 103669687 heartbeat IPC: 3.955 cumulative IPC: 3.955 (Simulation time: 00 hr 09 min 06 sec)
Heartbeat CPU 0 instructions: 420000004 cycles: 106198210 heartbeat IPC: 3.955 cumulative IPC: 3.955 (Simulation time: 00 hr 09 min 19 sec)
Heartbeat CPU 0 instructions: 430000001 cycles: 108726210 heartbeat IPC: 3.956 cumulative IPC: 3.955 (Simulation time: 00 hr 09 min 33 sec)
Heartbeat CPU 0 instructions: 440000003 cycles: 111252618 heartbeat IPC: 3.958 cumulative IPC: 3.955 (Simulation time: 00 hr 09 min 46 sec)
Heartbeat CPU 0 instructions: 450000004 cycles: 113779101 heartbeat IPC: 3.958 cumulative IPC: 3.955 (Simulation time: 00 hr 09 min 59 sec)
Heartbeat CPU 0 instructions: 460000001 cycles: 116305636 heartbeat IPC: 3.958 cumulative IPC: 3.955 (Simulation time: 00 hr 10 min 12 sec)
Heartbeat CPU 0 instructions: 470000003 cycles: 118814642 heartbeat IPC: 3.986 cumulative IPC: 3.956 (Simulation time: 00 hr 10 min 27 sec)
Heartbeat CPU 0 instructions: 480000002 cycles: 121337351 heartbeat IPC: 3.964 cumulative IPC: 3.956 (Simulation time: 00 hr 10 min 41 sec)
Heartbeat CPU 0 instructions: 490000001 cycles: 123867361 heartbeat IPC: 3.953 cumulative IPC: 3.956 (Simulation time: 00 hr 10 min 54 sec)
Heartbeat CPU 0 instructions: 500000003 cycles: 126396524 heartbeat IPC: 3.954 cumulative IPC: 3.956 (Simulation time: 00 hr 11 min 07 sec)
Heartbeat CPU 0 instructions: 510000003 cycles: 128924485 heartbeat IPC: 3.956 cumulative IPC: 3.956 (Simulation time: 00 hr 11 min 21 sec)
Heartbeat CPU 0 instructions: 520000001 cycles: 131452685 heartbeat IPC: 3.955 cumulative IPC: 3.956 (Simulation time: 00 hr 11 min 34 sec)
Heartbeat CPU 0 instructions: 530000001 cycles: 133971431 heartbeat IPC: 3.97 cumulative IPC: 3.956 (Simulation time: 00 hr 11 min 47 sec)
Heartbeat CPU 0 instructions: 540000003 cycles: 136488906 heartbeat IPC: 3.972 cumulative IPC: 3.956 (Simulation time: 00 hr 12 min 01 sec)
Heartbeat CPU 0 instructions: 550000003 cycles: 139006470 heartbeat IPC: 3.972 cumulative IPC: 3.957 (Simulation time: 00 hr 12 min 14 sec)
Heartbeat CPU 0 instructions: 560000003 cycles: 141524282 heartbeat IPC: 3.972 cumulative IPC: 3.957 (Simulation time: 00 hr 12 min 28 sec)
Heartbeat CPU 0 instructions: 570000003 cycles: 144041825 heartbeat IPC: 3.972 cumulative IPC: 3.957 (Simulation time: 00 hr 12 min 41 sec)
Heartbeat CPU 0 instructions: 580000003 cycles: 146559382 heartbeat IPC: 3.972 cumulative IPC: 3.957 (Simulation time: 00 hr 12 min 55 sec)
Heartbeat CPU 0 instructions: 590000001 cycles: 149076386 heartbeat IPC: 3.973 cumulative IPC: 3.958 (Simulation time: 00 hr 13 min 08 sec)
Heartbeat CPU 0 instructions: 600000001 cycles: 151593049 heartbeat IPC: 3.974 cumulative IPC: 3.958 (Simulation time: 00 hr 13 min 22 sec)
Heartbeat CPU 0 instructions: 610000001 cycles: 154109712 heartbeat IPC: 3.974 cumulative IPC: 3.958 (Simulation time: 00 hr 13 min 36 sec)
Heartbeat CPU 0 instructions: 620000001 cycles: 156626375 heartbeat IPC: 3.974 cumulative IPC: 3.958 (Simulation time: 00 hr 13 min 49 sec)
Heartbeat CPU 0 instructions: 630000001 cycles: 159143038 heartbeat IPC: 3.974 cumulative IPC: 3.959 (Simulation time: 00 hr 14 min 03 sec)
Heartbeat CPU 0 instructions: 640000002 cycles: 161661327 heartbeat IPC: 3.971 cumulative IPC: 3.959 (Simulation time: 00 hr 14 min 16 sec)
Heartbeat CPU 0 instructions: 650000003 cycles: 164189181 heartbeat IPC: 3.956 cumulative IPC: 3.959 (Simulation time: 00 hr 14 min 29 sec)
Heartbeat CPU 0 instructions: 660000003 cycles: 166718274 heartbeat IPC: 3.954 cumulative IPC: 3.959 (Simulation time: 00 hr 14 min 42 sec)
Heartbeat CPU 0 instructions: 670000003 cycles: 169242577 heartbeat IPC: 3.961 cumulative IPC: 3.959 (Simulation time: 00 hr 14 min 56 sec)
Heartbeat CPU 0 instructions: 680000003 cycles: 171772614 heartbeat IPC: 3.953 cumulative IPC: 3.959 (Simulation time: 00 hr 15 min 09 sec)
Heartbeat CPU 0 instructions: 690000001 cycles: 174303032 heartbeat IPC: 3.952 cumulative IPC: 3.959 (Simulation time: 00 hr 15 min 22 sec)
Heartbeat CPU 0 instructions: 700000003 cycles: 176833451 heartbeat IPC: 3.952 cumulative IPC: 3.959 (Simulation time: 00 hr 15 min 35 sec)
Heartbeat CPU 0 instructions: 710000000 cycles: 179363771 heartbeat IPC: 3.952 cumulative IPC: 3.958 (Simulation time: 00 hr 15 min 48 sec)
Heartbeat CPU 0 instructions: 720000001 cycles: 181892439 heartbeat IPC: 3.955 cumulative IPC: 3.958 (Simulation time: 00 hr 16 min 01 sec)
Heartbeat CPU 0 instructions: 730000003 cycles: 184398714 heartbeat IPC: 3.99 cumulative IPC: 3.959 (Simulation time: 00 hr 16 min 16 sec)
Heartbeat CPU 0 instructions: 740000000 cycles: 186925119 heartbeat IPC: 3.958 cumulative IPC: 3.959 (Simulation time: 00 hr 16 min 29 sec)
Heartbeat CPU 0 instructions: 750000001 cycles: 189456032 heartbeat IPC: 3.951 cumulative IPC: 3.959 (Simulation time: 00 hr 16 min 42 sec)
Heartbeat CPU 0 instructions: 760000001 cycles: 191986677 heartbeat IPC: 3.952 cumulative IPC: 3.959 (Simulation time: 00 hr 16 min 55 sec)
Heartbeat CPU 0 instructions: 770000000 cycles: 194517610 heartbeat IPC: 3.951 cumulative IPC: 3.959 (Simulation time: 00 hr 17 min 08 sec)
Heartbeat CPU 0 instructions: 780000001 cycles: 197047529 heartbeat IPC: 3.953 cumulative IPC: 3.958 (Simulation time: 00 hr 17 min 21 sec)
Heartbeat CPU 0 instructions: 790000000 cycles: 199577308 heartbeat IPC: 3.953 cumulative IPC: 3.958 (Simulation time: 00 hr 17 min 34 sec)
Heartbeat CPU 0 instructions: 800000003 cycles: 202103991 heartbeat IPC: 3.958 cumulative IPC: 3.958 (Simulation time: 00 hr 17 min 48 sec)
Heartbeat CPU 0 instructions: 810000001 cycles: 204627340 heartbeat IPC: 3.963 cumulative IPC: 3.958 (Simulation time: 00 hr 18 min 01 sec)
Heartbeat CPU 0 instructions: 820000000 cycles: 207149688 heartbeat IPC: 3.965 cumulative IPC: 3.958 (Simulation time: 00 hr 18 min 14 sec)
Heartbeat CPU 0 instructions: 830000001 cycles: 209676188 heartbeat IPC: 3.958 cumulative IPC: 3.958 (Simulation time: 00 hr 18 min 28 sec)
Heartbeat CPU 0 instructions: 840000000 cycles: 212202648 heartbeat IPC: 3.958 cumulative IPC: 3.958 (Simulation time: 00 hr 18 min 41 sec)
Heartbeat CPU 0 instructions: 850000001 cycles: 214729148 heartbeat IPC: 3.958 cumulative IPC: 3.958 (Simulation time: 00 hr 18 min 54 sec)
Heartbeat CPU 0 instructions: 860000000 cycles: 217255648 heartbeat IPC: 3.958 cumulative IPC: 3.958 (Simulation time: 00 hr 19 min 07 sec)
Heartbeat CPU 0 instructions: 870000001 cycles: 219782148 heartbeat IPC: 3.958 cumulative IPC: 3.958 (Simulation time: 00 hr 19 min 21 sec)
Heartbeat CPU 0 instructions: 880000002 cycles: 222308648 heartbeat IPC: 3.958 cumulative IPC: 3.958 (Simulation time: 00 hr 19 min 34 sec)
Heartbeat CPU 0 instructions: 890000001 cycles: 224835108 heartbeat IPC: 3.958 cumulative IPC: 3.958 (Simulation time: 00 hr 19 min 47 sec)
Heartbeat CPU 0 instructions: 900000001 cycles: 227361556 heartbeat IPC: 3.958 cumulative IPC: 3.958 (Simulation time: 00 hr 20 min 00 sec)
Heartbeat CPU 0 instructions: 910000003 cycles: 229888004 heartbeat IPC: 3.958 cumulative IPC: 3.958 (Simulation time: 00 hr 20 min 13 sec)
Heartbeat CPU 0 instructions: 920000002 cycles: 232414456 heartbeat IPC: 3.958 cumulative IPC: 3.958 (Simulation time: 00 hr 20 min 27 sec)
Heartbeat CPU 0 instructions: 930000001 cycles: 234934524 heartbeat IPC: 3.968 cumulative IPC: 3.959 (Simulation time: 00 hr 20 min 40 sec)
Heartbeat CPU 0 instructions: 940000000 cycles: 237461224 heartbeat IPC: 3.958 cumulative IPC: 3.959 (Simulation time: 00 hr 20 min 53 sec)
Heartbeat CPU 0 instructions: 950000000 cycles: 239986893 heartbeat IPC: 3.959 cumulative IPC: 3.959 (Simulation time: 00 hr 21 min 07 sec)
Heartbeat CPU 0 instructions: 960000000 cycles: 242513876 heartbeat IPC: 3.957 cumulative IPC: 3.959 (Simulation time: 00 hr 21 min 20 sec)
Heartbeat CPU 0 instructions: 970000001 cycles: 245044056 heartbeat IPC: 3.952 cumulative IPC: 3.958 (Simulation time: 00 hr 21 min 33 sec)
Heartbeat CPU 0 instructions: 980000002 cycles: 247574669 heartbeat IPC: 3.952 cumulative IPC: 3.958 (Simulation time: 00 hr 21 min 47 sec)
Heartbeat CPU 0 instructions: 990000001 cycles: 250105541 heartbeat IPC: 3.951 cumulative IPC: 3.958 (Simulation time: 00 hr 22 min 00 sec)
Heartbeat CPU 0 instructions: 1000000002 cycles: 252636306 heartbeat IPC: 3.951 cumulative IPC: 3.958 (Simulation time: 00 hr 22 min 13 sec)
Warmup finished CPU 0 instructions: 1000000002 cycles: 252636307 cumulative IPC: 3.958 (Simulation time: 00 hr 22 min 13 sec)
Warmup complete CPU 0 instructions: 1000000002 cycles: 252636307 cumulative IPC: 3.958 (Simulation time: 00 hr 22 min 13 sec)
Heartbeat CPU 0 instructions: 1010000000 cycles: 256644425 heartbeat IPC: 2.495 cumulative IPC: 2.495 (Simulation time: 00 hr 22 min 34 sec)
Heartbeat CPU 0 instructions: 1020000004 cycles: 261586042 heartbeat IPC: 2.024 cumulative IPC: 2.235 (Simulation time: 00 hr 22 min 59 sec)
Heartbeat CPU 0 instructions: 1030000002 cycles: 264799812 heartbeat IPC: 3.112 cumulative IPC: 2.466 (Simulation time: 00 hr 23 min 16 sec)
Heartbeat CPU 0 instructions: 1040000003 cycles: 268010492 heartbeat IPC: 3.115 cumulative IPC: 2.602 (Simulation time: 00 hr 23 min 33 sec)
Heartbeat CPU 0 instructions: 1050000000 cycles: 271223292 heartbeat IPC: 3.113 cumulative IPC: 2.69 (Simulation time: 00 hr 23 min 49 sec)
Heartbeat CPU 0 instructions: 1060000003 cycles: 274548381 heartbeat IPC: 3.007 cumulative IPC: 2.738 (Simulation time: 00 hr 24 min 06 sec)
Heartbeat CPU 0 instructions: 1070000002 cycles: 277845595 heartbeat IPC: 3.033 cumulative IPC: 2.777 (Simulation time: 00 hr 24 min 23 sec)
Heartbeat CPU 0 instructions: 1080000001 cycles: 281110075 heartbeat IPC: 3.063 cumulative IPC: 2.81 (Simulation time: 00 hr 24 min 40 sec)
Heartbeat CPU 0 instructions: 1090000000 cycles: 284359245 heartbeat IPC: 3.078 cumulative IPC: 2.837 (Simulation time: 00 hr 24 min 58 sec)
Heartbeat CPU 0 instructions: 1100000003 cycles: 287618882 heartbeat IPC: 3.068 cumulative IPC: 2.859 (Simulation time: 00 hr 25 min 15 sec)
Heartbeat CPU 0 instructions: 1110000001 cycles: 290897329 heartbeat IPC: 3.05 cumulative IPC: 2.875 (Simulation time: 00 hr 25 min 32 sec)
Heartbeat CPU 0 instructions: 1120000002 cycles: 294185888 heartbeat IPC: 3.041 cumulative IPC: 2.888 (Simulation time: 00 hr 25 min 49 sec)
Heartbeat CPU 0 instructions: 1130000002 cycles: 297424389 heartbeat IPC: 3.088 cumulative IPC: 2.903 (Simulation time: 00 hr 26 min 06 sec)
Heartbeat CPU 0 instructions: 1140000001 cycles: 300691883 heartbeat IPC: 3.06 cumulative IPC: 2.913 (Simulation time: 00 hr 26 min 22 sec)
Heartbeat CPU 0 instructions: 1150000000 cycles: 303981306 heartbeat IPC: 3.04 cumulative IPC: 2.921 (Simulation time: 00 hr 26 min 39 sec)
Heartbeat CPU 0 instructions: 1160000000 cycles: 307243908 heartbeat IPC: 3.065 cumulative IPC: 2.93 (Simulation time: 00 hr 26 min 56 sec)
Heartbeat CPU 0 instructions: 1170000001 cycles: 310533574 heartbeat IPC: 3.04 cumulative IPC: 2.936 (Simulation time: 00 hr 27 min 13 sec)
Heartbeat CPU 0 instructions: 1180000000 cycles: 313794448 heartbeat IPC: 3.067 cumulative IPC: 2.943 (Simulation time: 00 hr 27 min 30 sec)
Heartbeat CPU 0 instructions: 1190000002 cycles: 317080139 heartbeat IPC: 3.044 cumulative IPC: 2.948 (Simulation time: 00 hr 27 min 47 sec)
Heartbeat CPU 0 instructions: 1200000004 cycles: 320339129 heartbeat IPC: 3.068 cumulative IPC: 2.954 (Simulation time: 00 hr 28 min 04 sec)
Heartbeat CPU 0 instructions: 1210000001 cycles: 323605732 heartbeat IPC: 3.061 cumulative IPC: 2.959 (Simulation time: 00 hr 28 min 21 sec)
Heartbeat CPU 0 instructions: 1220000003 cycles: 326893556 heartbeat IPC: 3.042 cumulative IPC: 2.963 (Simulation time: 00 hr 28 min 38 sec)
Heartbeat CPU 0 instructions: 1230000001 cycles: 330154851 heartbeat IPC: 3.066 cumulative IPC: 2.967 (Simulation time: 00 hr 28 min 55 sec)
Heartbeat CPU 0 instructions: 1240000004 cycles: 333440881 heartbeat IPC: 3.043 cumulative IPC: 2.97 (Simulation time: 00 hr 29 min 12 sec)
Heartbeat CPU 0 instructions: 1250000004 cycles: 336676657 heartbeat IPC: 3.09 cumulative IPC: 2.975 (Simulation time: 00 hr 29 min 29 sec)
Heartbeat CPU 0 instructions: 1260000001 cycles: 339955136 heartbeat IPC: 3.05 cumulative IPC: 2.978 (Simulation time: 00 hr 29 min 46 sec)
Heartbeat CPU 0 instructions: 1270000002 cycles: 343241893 heartbeat IPC: 3.043 cumulative IPC: 2.98 (Simulation time: 00 hr 30 min 03 sec)
Heartbeat CPU 0 instructions: 1280000000 cycles: 346485990 heartbeat IPC: 3.083 cumulative IPC: 2.983 (Simulation time: 00 hr 30 min 20 sec)
Heartbeat CPU 0 instructions: 1290000002 cycles: 349792546 heartbeat IPC: 3.024 cumulative IPC: 2.985 (Simulation time: 00 hr 30 min 37 sec)
Heartbeat CPU 0 instructions: 1300000000 cycles: 353060395 heartbeat IPC: 3.06 cumulative IPC: 2.987 (Simulation time: 00 hr 30 min 54 sec)
Heartbeat CPU 0 instructions: 1310000004 cycles: 356349780 heartbeat IPC: 3.04 cumulative IPC: 2.989 (Simulation time: 00 hr 31 min 11 sec)
Heartbeat CPU 0 instructions: 1320000000 cycles: 359681423 heartbeat IPC: 3.002 cumulative IPC: 2.989 (Simulation time: 00 hr 31 min 28 sec)
Heartbeat CPU 0 instructions: 1330000000 cycles: 362899223 heartbeat IPC: 3.108 cumulative IPC: 2.993 (Simulation time: 00 hr 31 min 45 sec)
Heartbeat CPU 0 instructions: 1340000004 cycles: 366109430 heartbeat IPC: 3.115 cumulative IPC: 2.996 (Simulation time: 00 hr 32 min 02 sec)
Heartbeat CPU 0 instructions: 1350000002 cycles: 369323391 heartbeat IPC: 3.111 cumulative IPC: 2.999 (Simulation time: 00 hr 32 min 19 sec)
Heartbeat CPU 0 instructions: 1360000004 cycles: 373640740 heartbeat IPC: 2.316 cumulative IPC: 2.975 (Simulation time: 00 hr 32 min 41 sec)
Heartbeat CPU 0 instructions: 1370000004 cycles: 378195749 heartbeat IPC: 2.195 cumulative IPC: 2.947 (Simulation time: 00 hr 33 min 05 sec)
Heartbeat CPU 0 instructions: 1380000000 cycles: 381445477 heartbeat IPC: 3.077 cumulative IPC: 2.95 (Simulation time: 00 hr 33 min 22 sec)
Heartbeat CPU 0 instructions: 1390000002 cycles: 384694173 heartbeat IPC: 3.078 cumulative IPC: 2.953 (Simulation time: 00 hr 33 min 39 sec)
Heartbeat CPU 0 instructions: 1400000004 cycles: 387944189 heartbeat IPC: 3.077 cumulative IPC: 2.956 (Simulation time: 00 hr 33 min 56 sec)
Heartbeat CPU 0 instructions: 1410000004 cycles: 391214800 heartbeat IPC: 3.058 cumulative IPC: 2.959 (Simulation time: 00 hr 34 min 12 sec)
Heartbeat CPU 0 instructions: 1420000002 cycles: 394459641 heartbeat IPC: 3.082 cumulative IPC: 2.961 (Simulation time: 00 hr 34 min 29 sec)
Heartbeat CPU 0 instructions: 1430000000 cycles: 397704190 heartbeat IPC: 3.082 cumulative IPC: 2.964 (Simulation time: 00 hr 34 min 46 sec)
Heartbeat CPU 0 instructions: 1440000000 cycles: 400946962 heartbeat IPC: 3.084 cumulative IPC: 2.967 (Simulation time: 00 hr 35 min 02 sec)
Heartbeat CPU 0 instructions: 1450000002 cycles: 404208756 heartbeat IPC: 3.066 cumulative IPC: 2.969 (Simulation time: 00 hr 35 min 20 sec)
Heartbeat CPU 0 instructions: 1460000003 cycles: 407433913 heartbeat IPC: 3.101 cumulative IPC: 2.972 (Simulation time: 00 hr 35 min 37 sec)
Heartbeat CPU 0 instructions: 1470000000 cycles: 410687575 heartbeat IPC: 3.073 cumulative IPC: 2.974 (Simulation time: 00 hr 35 min 54 sec)
Heartbeat CPU 0 instructions: 1480000000 cycles: 413945184 heartbeat IPC: 3.07 cumulative IPC: 2.976 (Simulation time: 00 hr 36 min 12 sec)
Heartbeat CPU 0 instructions: 1490000002 cycles: 417215125 heartbeat IPC: 3.058 cumulative IPC: 2.977 (Simulation time: 00 hr 36 min 29 sec)
Heartbeat CPU 0 instructions: 1500000000 cycles: 420460577 heartbeat IPC: 3.081 cumulative IPC: 2.979 (Simulation time: 00 hr 36 min 46 sec)
Simulation finished CPU 0 instructions: 500000003 cycles: 167824272 cumulative IPC: 2.979 (Simulation time: 00 hr 36 min 46 sec)
Simulation complete CPU 0 instructions: 500000003 cycles: 167824272 cumulative IPC: 2.979 (Simulation time: 00 hr 36 min 46 sec)

ChampSim completed all CPUs

=== Simulation ===
CPU 0 runs traces/603.bwaves_s-1080B.champsimtrace.xz
Region of Interest Statistics

CPU 0 cumulative IPC: 2.979 instructions: 500000003 cycles: 167824272
CPU 0 Branch Prediction Accuracy: 96.28% MPKI: 5.397 Average ROB Occupancy at Mispredict: 50.82
Branch type MPKI
BRANCH_DIRECT_JUMP: 0.186
BRANCH_INDIRECT: 0
BRANCH_CONDITIONAL: 5.08
BRANCH_DIRECT_CALL: 0
BRANCH_INDIRECT_CALL: 0
BRANCH_RETURN: 0.131

LLC TOTAL        ACCESS:     328041 HIT:     155996 MISS:     172045
LLC LOAD         ACCESS:      15730 HIT:         12 MISS:      15718
LLC RFO          ACCESS:     156304 HIT:         15 MISS:     156289
LLC PREFETCH     ACCESS:          0 HIT:          0 MISS:          0
LLC WRITE        ACCESS:     155986 HIT:     155966 MISS:         20
LLC TRANSLATION  ACCESS:         21 HIT:          3 MISS:         18
LLC PREFETCH REQUESTED:          0 ISSUED:          0 USEFUL:          0 USELESS:          0
LLC AVERAGE MISS LATENCY: 408.5 cycles
cpu0_DTLB TOTAL        ACCESS:   81001538 HIT:   80977544 MISS:      23994
cpu0_DTLB LOAD         ACCESS:   81001538 HIT:   80977544 MISS:      23994
cpu0_DTLB RFO          ACCESS:          0 HIT:          0 MISS:          0
cpu0_DTLB PREFETCH     ACCESS:          0 HIT:          0 MISS:          0
cpu0_DTLB WRITE        ACCESS:          0 HIT:          0 MISS:          0
cpu0_DTLB TRANSLATION  ACCESS:          0 HIT:          0 MISS:          0
cpu0_DTLB PREFETCH REQUESTED:          0 ISSUED:          0 USEFUL:          0 USELESS:          0
cpu0_DTLB AVERAGE MISS LATENCY: 19.68 cycles
cpu0_ITLB TOTAL        ACCESS:    1893882 HIT:    1893882 MISS:          0
cpu0_ITLB LOAD         ACCESS:    1893882 HIT:    1893882 MISS:          0
cpu0_ITLB RFO          ACCESS:          0 HIT:          0 MISS:          0
cpu0_ITLB PREFETCH     ACCESS:          0 HIT:          0 MISS:          0
cpu0_ITLB WRITE        ACCESS:          0 HIT:          0 MISS:          0
cpu0_ITLB TRANSLATION  ACCESS:          0 HIT:          0 MISS:          0
cpu0_ITLB PREFETCH REQUESTED:          0 ISSUED:          0 USEFUL:          0 USELESS:          0
cpu0_ITLB AVERAGE MISS LATENCY: -nan cycles
cpu0_L1D TOTAL        ACCESS:  125101822 HIT:  123910250 MISS:    1191572
cpu0_L1D LOAD         ACCESS:  103976360 HIT:  103932989 MISS:      43371
cpu0_L1D RFO          ACCESS:          0 HIT:          0 MISS:          0
cpu0_L1D PREFETCH     ACCESS:          0 HIT:          0 MISS:          0
cpu0_L1D WRITE        ACCESS:   21122766 HIT:   19974830 MISS:    1147936
cpu0_L1D TRANSLATION  ACCESS:       2696 HIT:       2431 MISS:        265
cpu0_L1D PREFETCH REQUESTED:          0 ISSUED:          0 USEFUL:          0 USELESS:          0
cpu0_L1D AVERAGE MISS LATENCY: 59.29 cycles
cpu0_L1I TOTAL        ACCESS:    2193677 HIT:    2193677 MISS:          0
cpu0_L1I LOAD         ACCESS:    2193677 HIT:    2193677 MISS:          0
cpu0_L1I RFO          ACCESS:          0 HIT:          0 MISS:          0
cpu0_L1I PREFETCH     ACCESS:          0 HIT:          0 MISS:          0
cpu0_L1I WRITE        ACCESS:          0 HIT:          0 MISS:          0
cpu0_L1I TRANSLATION  ACCESS:          0 HIT:          0 MISS:          0
cpu0_L1I PREFETCH REQUESTED:          0 ISSUED:          0 USEFUL:          0 USELESS:          0
cpu0_L1I AVERAGE MISS LATENCY: -nan cycles
cpu0_L2C TOTAL        ACCESS:     331611 HIT:     159537 MISS:     172074
cpu0_L2C LOAD         ACCESS:      16950 HIT:       1220 MISS:      15730
cpu0_L2C RFO          ACCESS:     157504 HIT:       1200 MISS:     156304
cpu0_L2C PREFETCH     ACCESS:          0 HIT:          0 MISS:          0
cpu0_L2C WRITE        ACCESS:     156892 HIT:     156873 MISS:         19
cpu0_L2C TRANSLATION  ACCESS:        265 HIT:        244 MISS:         21
cpu0_L2C PREFETCH REQUESTED:          0 ISSUED:          0 USEFUL:          0 USELESS:          0
cpu0_L2C AVERAGE MISS LATENCY: 429.4 cycles
cpu0_STLB TOTAL        ACCESS:       2814 HIT:        123 MISS:       2691
cpu0_STLB LOAD         ACCESS:       2814 HIT:        123 MISS:       2691
cpu0_STLB RFO          ACCESS:          0 HIT:          0 MISS:          0
cpu0_STLB PREFETCH     ACCESS:          0 HIT:          0 MISS:          0
cpu0_STLB WRITE        ACCESS:          0 HIT:          0 MISS:          0
cpu0_STLB TRANSLATION  ACCESS:          0 HIT:          0 MISS:          0
cpu0_STLB PREFETCH REQUESTED:          0 ISSUED:          0 USEFUL:          0 USELESS:          0
cpu0_STLB AVERAGE MISS LATENCY: 210.2 cycles

DRAM Statistics

Channel 0 RQ ROW_BUFFER_HIT:      59567
  ROW_BUFFER_MISS:     112458
 AVG DBUS CONGESTED CYCLE: 3.932
WQ ROW_BUFFER_HIT: Channel 0 
  ROW_BUFFER_MISS:      53807
  FULL:     102217
