WARNING: physical memory size is smaller than virtual memory size.

*** ChampSim Multicore Out-of-Order Simulator ***
Warmup Instructions: 1000000000
Simulation Instructions: 500000000
Number of CPUs: 1
Page size: 4096

Off-chip DRAM Size: 4 GiB Channels: 1 Width: 64-bit Data Race: 3200 MT/s
Heartbeat CPU 0 instructions: 10000002 cycles: 2521181 heartbeat IPC: 3.966 cumulative IPC: 3.966 (Simulation time: 00 hr 00 min 29 sec)
Heartbeat CPU 0 instructions: 20000002 cycles: 5034589 heartbeat IPC: 3.979 cumulative IPC: 3.973 (Simulation time: 00 hr 01 min 02 sec)
Heartbeat CPU 0 instructions: 30000000 cycles: 7564916 heartbeat IPC: 3.952 cumulative IPC: 3.966 (Simulation time: 00 hr 01 min 36 sec)
Heartbeat CPU 0 instructions: 40000001 cycles: 10095286 heartbeat IPC: 3.952 cumulative IPC: 3.962 (Simulation time: 00 hr 02 min 12 sec)
Heartbeat CPU 0 instructions: 50000000 cycles: 12625285 heartbeat IPC: 3.953 cumulative IPC: 3.96 (Simulation time: 00 hr 02 min 48 sec)
Heartbeat CPU 0 instructions: 60000000 cycles: 15157362 heartbeat IPC: 3.949 cumulative IPC: 3.958 (Simulation time: 00 hr 03 min 24 sec)
Heartbeat CPU 0 instructions: 70000001 cycles: 17689650 heartbeat IPC: 3.949 cumulative IPC: 3.957 (Simulation time: 00 hr 03 min 57 sec)
Heartbeat CPU 0 instructions: 80000001 cycles: 20221973 heartbeat IPC: 3.949 cumulative IPC: 3.956 (Simulation time: 00 hr 04 min 30 sec)
Heartbeat CPU 0 instructions: 90000003 cycles: 22753981 heartbeat IPC: 3.949 cumulative IPC: 3.955 (Simulation time: 00 hr 05 min 04 sec)
Heartbeat CPU 0 instructions: 100000003 cycles: 25287252 heartbeat IPC: 3.947 cumulative IPC: 3.955 (Simulation time: 00 hr 05 min 37 sec)
Heartbeat CPU 0 instructions: 110000003 cycles: 27821272 heartbeat IPC: 3.946 cumulative IPC: 3.954 (Simulation time: 00 hr 06 min 08 sec)
Heartbeat CPU 0 instructions: 120000003 cycles: 30355863 heartbeat IPC: 3.945 cumulative IPC: 3.953 (Simulation time: 00 hr 06 min 35 sec)
Heartbeat CPU 0 instructions: 130000002 cycles: 32890772 heartbeat IPC: 3.945 cumulative IPC: 3.952 (Simulation time: 00 hr 07 min 09 sec)
Heartbeat CPU 0 instructions: 140000000 cycles: 35425407 heartbeat IPC: 3.945 cumulative IPC: 3.952 (Simulation time: 00 hr 07 min 42 sec)
Heartbeat CPU 0 instructions: 150000001 cycles: 37958744 heartbeat IPC: 3.947 cumulative IPC: 3.952 (Simulation time: 00 hr 08 min 09 sec)
Heartbeat CPU 0 instructions: 160000000 cycles: 40492447 heartbeat IPC: 3.947 cumulative IPC: 3.951 (Simulation time: 00 hr 08 min 28 sec)
Heartbeat CPU 0 instructions: 170000003 cycles: 43025021 heartbeat IPC: 3.949 cumulative IPC: 3.951 (Simulation time: 00 hr 09 min 01 sec)
Heartbeat CPU 0 instructions: 180000003 cycles: 45558676 heartbeat IPC: 3.947 cumulative IPC: 3.951 (Simulation time: 00 hr 09 min 33 sec)
Heartbeat CPU 0 instructions: 190000002 cycles: 48091561 heartbeat IPC: 3.948 cumulative IPC: 3.951 (Simulation time: 00 hr 10 min 06 sec)
Heartbeat CPU 0 instructions: 200000001 cycles: 50624302 heartbeat IPC: 3.948 cumulative IPC: 3.951 (Simulation time: 00 hr 10 min 39 sec)
Heartbeat CPU 0 instructions: 210000002 cycles: 53157854 heartbeat IPC: 3.947 cumulative IPC: 3.95 (Simulation time: 00 hr 11 min 11 sec)
Heartbeat CPU 0 instructions: 220000002 cycles: 55690417 heartbeat IPC: 3.949 cumulative IPC: 3.95 (Simulation time: 00 hr 11 min 45 sec)
Heartbeat CPU 0 instructions: 230000000 cycles: 58223770 heartbeat IPC: 3.947 cumulative IPC: 3.95 (Simulation time: 00 hr 12 min 19 sec)
Heartbeat CPU 0 instructions: 240000003 cycles: 60756730 heartbeat IPC: 3.948 cumulative IPC: 3.95 (Simulation time: 00 hr 12 min 52 sec)
Heartbeat CPU 0 instructions: 250000002 cycles: 63289647 heartbeat IPC: 3.948 cumulative IPC: 3.95 (Simulation time: 00 hr 13 min 20 sec)
Heartbeat CPU 0 instructions: 260000003 cycles: 65822915 heartbeat IPC: 3.947 cumulative IPC: 3.95 (Simulation time: 00 hr 13 min 39 sec)
Heartbeat CPU 0 instructions: 270000002 cycles: 68355705 heartbeat IPC: 3.948 cumulative IPC: 3.95 (Simulation time: 00 hr 13 min 57 sec)
Heartbeat CPU 0 instructions: 280000001 cycles: 70888809 heartbeat IPC: 3.948 cumulative IPC: 3.95 (Simulation time: 00 hr 14 min 15 sec)
Heartbeat CPU 0 instructions: 290000001 cycles: 73422048 heartbeat IPC: 3.948 cumulative IPC: 3.95 (Simulation time: 00 hr 14 min 47 sec)
Heartbeat CPU 0 instructions: 300000000 cycles: 75954927 heartbeat IPC: 3.948 cumulative IPC: 3.95 (Simulation time: 00 hr 15 min 09 sec)
Heartbeat CPU 0 instructions: 310000000 cycles: 78488080 heartbeat IPC: 3.948 cumulative IPC: 3.95 (Simulation time: 00 hr 15 min 28 sec)
Heartbeat CPU 0 instructions: 320000002 cycles: 81021005 heartbeat IPC: 3.948 cumulative IPC: 3.95 (Simulation time: 00 hr 15 min 46 sec)
Heartbeat CPU 0 instructions: 330000001 cycles: 83554441 heartbeat IPC: 3.947 cumulative IPC: 3.95 (Simulation time: 00 hr 16 min 04 sec)
Heartbeat CPU 0 instructions: 340000001 cycles: 86087995 heartbeat IPC: 3.947 cumulative IPC: 3.949 (Simulation time: 00 hr 16 min 27 sec)
Heartbeat CPU 0 instructions: 350000000 cycles: 88622567 heartbeat IPC: 3.945 cumulative IPC: 3.949 (Simulation time: 00 hr 17 min 00 sec)
Heartbeat CPU 0 instructions: 360000001 cycles: 91157604 heartbeat IPC: 3.945 cumulative IPC: 3.949 (Simulation time: 00 hr 17 min 34 sec)
Heartbeat CPU 0 instructions: 370000002 cycles: 93692110 heartbeat IPC: 3.946 cumulative IPC: 3.949 (Simulation time: 00 hr 18 min 07 sec)
Heartbeat CPU 0 instructions: 380000000 cycles: 96226090 heartbeat IPC: 3.946 cumulative IPC: 3.949 (Simulation time: 00 hr 18 min 41 sec)
Heartbeat CPU 0 instructions: 390000000 cycles: 98758886 heartbeat IPC: 3.948 cumulative IPC: 3.949 (Simulation time: 00 hr 19 min 14 sec)
Heartbeat CPU 0 instructions: 400000003 cycles: 101291324 heartbeat IPC: 3.949 cumulative IPC: 3.949 (Simulation time: 00 hr 19 min 47 sec)
Heartbeat CPU 0 instructions: 410000002 cycles: 103823413 heartbeat IPC: 3.949 cumulative IPC: 3.949 (Simulation time: 00 hr 20 min 21 sec)
Heartbeat CPU 0 instructions: 420000004 cycles: 106355698 heartbeat IPC: 3.949 cumulative IPC: 3.949 (Simulation time: 00 hr 20 min 54 sec)
Heartbeat CPU 0 instructions: 430000001 cycles: 108887390 heartbeat IPC: 3.95 cumulative IPC: 3.949 (Simulation time: 00 hr 21 min 27 sec)
Heartbeat CPU 0 instructions: 440000003 cycles: 111417489 heartbeat IPC: 3.952 cumulative IPC: 3.949 (Simulation time: 00 hr 22 min 01 sec)
Heartbeat CPU 0 instructions: 450000004 cycles: 113947727 heartbeat IPC: 3.952 cumulative IPC: 3.949 (Simulation time: 00 hr 22 min 34 sec)
Heartbeat CPU 0 instructions: 460000001 cycles: 116477992 heartbeat IPC: 3.952 cumulative IPC: 3.949 (Simulation time: 00 hr 23 min 08 sec)
Heartbeat CPU 0 instructions: 470000003 cycles: 118988271 heartbeat IPC: 3.984 cumulative IPC: 3.95 (Simulation time: 00 hr 23 min 44 sec)
Heartbeat CPU 0 instructions: 480000002 cycles: 121514020 heartbeat IPC: 3.959 cumulative IPC: 3.95 (Simulation time: 00 hr 24 min 18 sec)
Heartbeat CPU 0 instructions: 490000001 cycles: 124047905 heartbeat IPC: 3.947 cumulative IPC: 3.95 (Simulation time: 00 hr 24 min 51 sec)
Heartbeat CPU 0 instructions: 500000003 cycles: 126580832 heartbeat IPC: 3.948 cumulative IPC: 3.95 (Simulation time: 00 hr 25 min 24 sec)
Heartbeat CPU 0 instructions: 510000003 cycles: 129112433 heartbeat IPC: 3.95 cumulative IPC: 3.95 (Simulation time: 00 hr 25 min 58 sec)
Heartbeat CPU 0 instructions: 520000001 cycles: 131644301 heartbeat IPC: 3.95 cumulative IPC: 3.95 (Simulation time: 00 hr 26 min 31 sec)
Heartbeat CPU 0 instructions: 530000001 cycles: 134165515 heartbeat IPC: 3.966 cumulative IPC: 3.95 (Simulation time: 00 hr 27 min 05 sec)
Heartbeat CPU 0 instructions: 540000003 cycles: 136685327 heartbeat IPC: 3.969 cumulative IPC: 3.951 (Simulation time: 00 hr 27 min 39 sec)
Heartbeat CPU 0 instructions: 550000003 cycles: 139205243 heartbeat IPC: 3.968 cumulative IPC: 3.951 (Simulation time: 00 hr 28 min 13 sec)
Heartbeat CPU 0 instructions: 560000003 cycles: 141725420 heartbeat IPC: 3.968 cumulative IPC: 3.951 (Simulation time: 00 hr 28 min 47 sec)
Heartbeat CPU 0 instructions: 570000003 cycles: 144245298 heartbeat IPC: 3.968 cumulative IPC: 3.952 (Simulation time: 00 hr 29 min 22 sec)
Heartbeat CPU 0 instructions: 580000003 cycles: 146765198 heartbeat IPC: 3.968 cumulative IPC: 3.952 (Simulation time: 00 hr 29 min 56 sec)
Heartbeat CPU 0 instructions: 590000001 cycles: 149284439 heartbeat IPC: 3.969 cumulative IPC: 3.952 (Simulation time: 00 hr 30 min 30 sec)
Heartbeat CPU 0 instructions: 600000001 cycles: 151803330 heartbeat IPC: 3.97 cumulative IPC: 3.952 (Simulation time: 00 hr 31 min 04 sec)
Heartbeat CPU 0 instructions: 610000001 cycles: 154322195 heartbeat IPC: 3.97 cumulative IPC: 3.953 (Simulation time: 00 hr 31 min 38 sec)
Heartbeat CPU 0 instructions: 620000001 cycles: 156841096 heartbeat IPC: 3.97 cumulative IPC: 3.953 (Simulation time: 00 hr 32 min 12 sec)
Heartbeat CPU 0 instructions: 630000001 cycles: 159359989 heartbeat IPC: 3.97 cumulative IPC: 3.953 (Simulation time: 00 hr 32 min 47 sec)
Heartbeat CPU 0 instructions: 640000002 cycles: 161880746 heartbeat IPC: 3.967 cumulative IPC: 3.954 (Simulation time: 00 hr 33 min 21 sec)
Heartbeat CPU 0 instructions: 650000003 cycles: 164412234 heartbeat IPC: 3.95 cumulative IPC: 3.953 (Simulation time: 00 hr 33 min 54 sec)
Heartbeat CPU 0 instructions: 660000003 cycles: 166945128 heartbeat IPC: 3.948 cumulative IPC: 3.953 (Simulation time: 00 hr 34 min 27 sec)
Heartbeat CPU 0 instructions: 670000003 cycles: 169472560 heartbeat IPC: 3.957 cumulative IPC: 3.953 (Simulation time: 00 hr 35 min 01 sec)
Heartbeat CPU 0 instructions: 680000003 cycles: 172006458 heartbeat IPC: 3.946 cumulative IPC: 3.953 (Simulation time: 00 hr 35 min 34 sec)
Heartbeat CPU 0 instructions: 690000001 cycles: 174540783 heartbeat IPC: 3.946 cumulative IPC: 3.953 (Simulation time: 00 hr 36 min 07 sec)
Heartbeat CPU 0 instructions: 700000003 cycles: 177075164 heartbeat IPC: 3.946 cumulative IPC: 3.953 (Simulation time: 00 hr 36 min 41 sec)
Heartbeat CPU 0 instructions: 710000000 cycles: 179609479 heartbeat IPC: 3.946 cumulative IPC: 3.953 (Simulation time: 00 hr 37 min 14 sec)
Heartbeat CPU 0 instructions: 720000001 cycles: 182141953 heartbeat IPC: 3.949 cumulative IPC: 3.953 (Simulation time: 00 hr 37 min 47 sec)
Heartbeat CPU 0 instructions: 730000003 cycles: 184649097 heartbeat IPC: 3.989 cumulative IPC: 3.953 (Simulation time: 00 hr 38 min 24 sec)
Heartbeat CPU 0 instructions: 740000000 cycles: 187178996 heartbeat IPC: 3.953 cumulative IPC: 3.953 (Simulation time: 00 hr 38 min 57 sec)
Heartbeat CPU 0 instructions: 750000001 cycles: 189713859 heartbeat IPC: 3.945 cumulative IPC: 3.953 (Simulation time: 00 hr 39 min 30 sec)
Heartbeat CPU 0 instructions: 760000003 cycles: 192248428 heartbeat IPC: 3.945 cumulative IPC: 3.953 (Simulation time: 00 hr 40 min 04 sec)
Heartbeat CPU 0 instructions: 770000000 cycles: 194783322 heartbeat IPC: 3.945 cumulative IPC: 3.953 (Simulation time: 00 hr 40 min 37 sec)
Heartbeat CPU 0 instructions: 780000001 cycles: 197317090 heartbeat IPC: 3.947 cumulative IPC: 3.953 (Simulation time: 00 hr 41 min 10 sec)
Heartbeat CPU 0 instructions: 790000000 cycles: 199850663 heartbeat IPC: 3.947 cumulative IPC: 3.953 (Simulation time: 00 hr 41 min 43 sec)
Heartbeat CPU 0 instructions: 800000003 cycles: 202380844 heartbeat IPC: 3.952 cumulative IPC: 3.953 (Simulation time: 00 hr 42 min 17 sec)
Heartbeat CPU 0 instructions: 810000001 cycles: 204907275 heartbeat IPC: 3.958 cumulative IPC: 3.953 (Simulation time: 00 hr 42 min 51 sec)
Heartbeat CPU 0 instructions: 820000000 cycles: 207432554 heartbeat IPC: 3.96 cumulative IPC: 3.953 (Simulation time: 00 hr 43 min 25 sec)
Heartbeat CPU 0 instructions: 830000001 cycles: 209962580 heartbeat IPC: 3.953 cumulative IPC: 3.953 (Simulation time: 00 hr 43 min 58 sec)
Heartbeat CPU 0 instructions: 840000000 cycles: 212492524 heartbeat IPC: 3.953 cumulative IPC: 3.953 (Simulation time: 00 hr 44 min 31 sec)
Heartbeat CPU 0 instructions: 850000001 cycles: 215022496 heartbeat IPC: 3.953 cumulative IPC: 3.953 (Simulation time: 00 hr 45 min 05 sec)
Heartbeat CPU 0 instructions: 860000000 cycles: 217552508 heartbeat IPC: 3.953 cumulative IPC: 3.953 (Simulation time: 00 hr 45 min 38 sec)
Heartbeat CPU 0 instructions: 870000001 cycles: 220082506 heartbeat IPC: 3.953 cumulative IPC: 3.953 (Simulation time: 00 hr 46 min 12 sec)
Heartbeat CPU 0 instructions: 880000002 cycles: 222612493 heartbeat IPC: 3.953 cumulative IPC: 3.953 (Simulation time: 00 hr 46 min 45 sec)
Heartbeat CPU 0 instructions: 890000001 cycles: 225142467 heartbeat IPC: 3.953 cumulative IPC: 3.953 (Simulation time: 00 hr 47 min 19 sec)
Heartbeat CPU 0 instructions: 900000001 cycles: 227672380 heartbeat IPC: 3.953 cumulative IPC: 3.953 (Simulation time: 00 hr 47 min 52 sec)
Heartbeat CPU 0 instructions: 910000003 cycles: 230202318 heartbeat IPC: 3.953 cumulative IPC: 3.953 (Simulation time: 00 hr 48 min 26 sec)
Heartbeat CPU 0 instructions: 920000002 cycles: 232732260 heartbeat IPC: 3.953 cumulative IPC: 3.953 (Simulation time: 00 hr 48 min 59 sec)
Heartbeat CPU 0 instructions: 930000001 cycles: 235254965 heartbeat IPC: 3.964 cumulative IPC: 3.953 (Simulation time: 00 hr 49 min 33 sec)
Heartbeat CPU 0 instructions: 940000000 cycles: 237785165 heartbeat IPC: 3.952 cumulative IPC: 3.953 (Simulation time: 00 hr 50 min 07 sec)
Heartbeat CPU 0 instructions: 950000000 cycles: 240314209 heartbeat IPC: 3.954 cumulative IPC: 3.953 (Simulation time: 00 hr 50 min 40 sec)
Heartbeat CPU 0 instructions: 960000000 cycles: 242844639 heartbeat IPC: 3.952 cumulative IPC: 3.953 (Simulation time: 00 hr 51 min 14 sec)
Heartbeat CPU 0 instructions: 970000001 cycles: 245378714 heartbeat IPC: 3.946 cumulative IPC: 3.953 (Simulation time: 00 hr 51 min 47 sec)
Heartbeat CPU 0 instructions: 980000002 cycles: 247913265 heartbeat IPC: 3.945 cumulative IPC: 3.953 (Simulation time: 00 hr 52 min 21 sec)
Heartbeat CPU 0 instructions: 990000001 cycles: 250448112 heartbeat IPC: 3.945 cumulative IPC: 3.953 (Simulation time: 00 hr 52 min 54 sec)
Heartbeat CPU 0 instructions: 1000000002 cycles: 252982789 heartbeat IPC: 3.945 cumulative IPC: 3.953 (Simulation time: 00 hr 53 min 27 sec)
Warmup finished CPU 0 instructions: 1000000002 cycles: 252982790 cumulative IPC: 3.953 (Simulation time: 00 hr 53 min 27 sec)
Warmup complete CPU 0 instructions: 1000000002 cycles: 252982790 cumulative IPC: 3.953 (Simulation time: 00 hr 53 min 27 sec)
Heartbeat CPU 0 instructions: 1010000000 cycles: 256644990 heartbeat IPC: 2.731 cumulative IPC: 2.731 (Simulation time: 00 hr 54 min 15 sec)
Heartbeat CPU 0 instructions: 1020000004 cycles: 261397972 heartbeat IPC: 2.104 cumulative IPC: 2.377 (Simulation time: 00 hr 55 min 16 sec)
Heartbeat CPU 0 instructions: 1030000002 cycles: 264161206 heartbeat IPC: 3.619 cumulative IPC: 2.684 (Simulation time: 00 hr 55 min 55 sec)
Heartbeat CPU 0 instructions: 1040000003 cycles: 266922049 heartbeat IPC: 3.622 cumulative IPC: 2.87 (Simulation time: 00 hr 56 min 34 sec)
Heartbeat CPU 0 instructions: 1050000000 cycles: 269681904 heartbeat IPC: 3.623 cumulative IPC: 2.994 (Simulation time: 00 hr 57 min 13 sec)
Heartbeat CPU 0 instructions: 1060000003 cycles: 272548093 heartbeat IPC: 3.489 cumulative IPC: 3.067 (Simulation time: 00 hr 57 min 53 sec)
Heartbeat CPU 0 instructions: 1070000002 cycles: 275391582 heartbeat IPC: 3.517 cumulative IPC: 3.124 (Simulation time: 00 hr 58 min 33 sec)
Heartbeat CPU 0 instructions: 1080000001 cycles: 278240271 heartbeat IPC: 3.51 cumulative IPC: 3.167 (Simulation time: 00 hr 59 min 13 sec)
Heartbeat CPU 0 instructions: 1090000000 cycles: 281094700 heartbeat IPC: 3.503 cumulative IPC: 3.201 (Simulation time: 00 hr 59 min 54 sec)
Heartbeat CPU 0 instructions: 1100000001 cycles: 283934035 heartbeat IPC: 3.522 cumulative IPC: 3.231 (Simulation time: 01 hr 00 min 34 sec)
Heartbeat CPU 0 instructions: 1110000001 cycles: 286759178 heartbeat IPC: 3.54 cumulative IPC: 3.257 (Simulation time: 01 hr 01 min 14 sec)
Heartbeat CPU 0 instructions: 1120000003 cycles: 289589233 heartbeat IPC: 3.534 cumulative IPC: 3.278 (Simulation time: 01 hr 01 min 50 sec)
Heartbeat CPU 0 instructions: 1130000002 cycles: 292422467 heartbeat IPC: 3.53 cumulative IPC: 3.296 (Simulation time: 01 hr 02 min 12 sec)
Heartbeat CPU 0 instructions: 1140000003 cycles: 295238216 heartbeat IPC: 3.551 cumulative IPC: 3.313 (Simulation time: 01 hr 02 min 33 sec)
Heartbeat CPU 0 instructions: 1150000000 cycles: 298074675 heartbeat IPC: 3.526 cumulative IPC: 3.327 (Simulation time: 01 hr 02 min 55 sec)
Heartbeat CPU 0 instructions: 1160000000 cycles: 300898982 heartbeat IPC: 3.541 cumulative IPC: 3.339 (Simulation time: 01 hr 03 min 16 sec)
Heartbeat CPU 0 instructions: 1170000001 cycles: 303738418 heartbeat IPC: 3.522 cumulative IPC: 3.349 (Simulation time: 01 hr 03 min 38 sec)
Heartbeat CPU 0 instructions: 1180000000 cycles: 306564718 heartbeat IPC: 3.538 cumulative IPC: 3.359 (Simulation time: 01 hr 04 min 00 sec)
Heartbeat CPU 0 instructions: 1190000000 cycles: 309398866 heartbeat IPC: 3.528 cumulative IPC: 3.368 (Simulation time: 01 hr 04 min 30 sec)
Heartbeat CPU 0 instructions: 1200000004 cycles: 312222400 heartbeat IPC: 3.542 cumulative IPC: 3.376 (Simulation time: 01 hr 05 min 10 sec)
Heartbeat CPU 0 instructions: 1210000001 cycles: 315032788 heartbeat IPC: 3.558 cumulative IPC: 3.384 (Simulation time: 01 hr 05 min 49 sec)
Heartbeat CPU 0 instructions: 1220000003 cycles: 317866273 heartbeat IPC: 3.529 cumulative IPC: 3.391 (Simulation time: 01 hr 06 min 29 sec)
Heartbeat CPU 0 instructions: 1230000001 cycles: 320688981 heartbeat IPC: 3.543 cumulative IPC: 3.397 (Simulation time: 01 hr 07 min 09 sec)
Heartbeat CPU 0 instructions: 1240000004 cycles: 323520863 heartbeat IPC: 3.531 cumulative IPC: 3.402 (Simulation time: 01 hr 07 min 48 sec)
Heartbeat CPU 0 instructions: 1250000001 cycles: 326351725 heartbeat IPC: 3.532 cumulative IPC: 3.407 (Simulation time: 01 hr 08 min 28 sec)
Heartbeat CPU 0 instructions: 1260000001 cycles: 329173624 heartbeat IPC: 3.544 cumulative IPC: 3.412 (Simulation time: 01 hr 09 min 08 sec)
Heartbeat CPU 0 instructions: 1270000002 cycles: 332002749 heartbeat IPC: 3.535 cumulative IPC: 3.417 (Simulation time: 01 hr 09 min 48 sec)
Heartbeat CPU 0 instructions: 1280000000 cycles: 334835856 heartbeat IPC: 3.53 cumulative IPC: 3.421 (Simulation time: 01 hr 10 min 28 sec)
Heartbeat CPU 0 instructions: 1290000002 cycles: 337697519 heartbeat IPC: 3.494 cumulative IPC: 3.423 (Simulation time: 01 hr 11 min 08 sec)
Heartbeat CPU 0 instructions: 1300000004 cycles: 340546842 heartbeat IPC: 3.51 cumulative IPC: 3.426 (Simulation time: 01 hr 11 min 48 sec)
Heartbeat CPU 0 instructions: 1310000003 cycles: 343369345 heartbeat IPC: 3.543 cumulative IPC: 3.43 (Simulation time: 01 hr 12 min 27 sec)
Heartbeat CPU 0 instructions: 1320000002 cycles: 346238678 heartbeat IPC: 3.485 cumulative IPC: 3.431 (Simulation time: 01 hr 13 min 07 sec)
Heartbeat CPU 0 instructions: 1330000000 cycles: 349001050 heartbeat IPC: 3.62 cumulative IPC: 3.437 (Simulation time: 01 hr 13 min 46 sec)
Heartbeat CPU 0 instructions: 1340000004 cycles: 351759651 heartbeat IPC: 3.625 cumulative IPC: 3.442 (Simulation time: 01 hr 14 min 25 sec)
Heartbeat CPU 0 instructions: 1350000000 cycles: 354520337 heartbeat IPC: 3.622 cumulative IPC: 3.447 (Simulation time: 01 hr 15 min 04 sec)
Heartbeat CPU 0 instructions: 1360000004 cycles: 358539630 heartbeat IPC: 2.488 cumulative IPC: 3.41 (Simulation time: 01 hr 15 min 56 sec)
Heartbeat CPU 0 instructions: 1370000004 cycles: 362836216 heartbeat IPC: 2.327 cumulative IPC: 3.368 (Simulation time: 01 hr 16 min 48 sec)
Heartbeat CPU 0 instructions: 1380000000 cycles: 365615785 heartbeat IPC: 3.598 cumulative IPC: 3.374 (Simulation time: 01 hr 17 min 09 sec)
Heartbeat CPU 0 instructions: 1390000002 cycles: 368394431 heartbeat IPC: 3.599 cumulative IPC: 3.379 (Simulation time: 01 hr 17 min 30 sec)
Heartbeat CPU 0 instructions: 1400000004 cycles: 371174277 heartbeat IPC: 3.597 cumulative IPC: 3.384 (Simulation time: 01 hr 17 min 51 sec)
Heartbeat CPU 0 instructions: 1410000004 cycles: 373974262 heartbeat IPC: 3.571 cumulative IPC: 3.389 (Simulation time: 01 hr 18 min 12 sec)
Heartbeat CPU 0 instructions: 1420000002 cycles: 376748193 heartbeat IPC: 3.605 cumulative IPC: 3.394 (Simulation time: 01 hr 18 min 33 sec)
Heartbeat CPU 0 instructions: 1430000000 cycles: 379522591 heartbeat IPC: 3.604 cumulative IPC: 3.398 (Simulation time: 01 hr 18 min 54 sec)
Heartbeat CPU 0 instructions: 1440000000 cycles: 382294995 heartbeat IPC: 3.607 cumulative IPC: 3.403 (Simulation time: 01 hr 19 min 15 sec)
Heartbeat CPU 0 instructions: 1450000002 cycles: 385122293 heartbeat IPC: 3.537 cumulative IPC: 3.405 (Simulation time: 01 hr 19 min 36 sec)
Heartbeat CPU 0 instructions: 1460000003 cycles: 387918907 heartbeat IPC: 3.576 cumulative IPC: 3.409 (Simulation time: 01 hr 19 min 56 sec)
Heartbeat CPU 0 instructions: 1470000000 cycles: 390768075 heartbeat IPC: 3.51 cumulative IPC: 3.411 (Simulation time: 01 hr 20 min 16 sec)
Heartbeat CPU 0 instructions: 1480000000 cycles: 393670831 heartbeat IPC: 3.445 cumulative IPC: 3.412 (Simulation time: 01 hr 20 min 36 sec)
Heartbeat CPU 0 instructions: 1490000000 cycles: 396484347 heartbeat IPC: 3.554 cumulative IPC: 3.415 (Simulation time: 01 hr 20 min 55 sec)
Heartbeat CPU 0 instructions: 1500000002 cycles: 399308308 heartbeat IPC: 3.541 cumulative IPC: 3.417 (Simulation time: 01 hr 21 min 14 sec)
Simulation finished CPU 0 instructions: 500000000 cycles: 146325519 cumulative IPC: 3.417 (Simulation time: 01 hr 21 min 14 sec)
Simulation complete CPU 0 instructions: 500000000 cycles: 146325519 cumulative IPC: 3.417 (Simulation time: 01 hr 21 min 14 sec)

ChampSim completed all CPUs

=== Simulation ===
CPU 0 runs traces/603.bwaves_s-1080B.champsimtrace.xz
Region of Interest Statistics

CPU 0 cumulative IPC: 3.417 instructions: 500000000 cycles: 146325519
CPU 0 Branch Prediction Accuracy: 98.84% MPKI: 1.683 Average ROB Occupancy at Mispredict: 110.7
Branch type MPKI
BRANCH_DIRECT_JUMP: 0.186
BRANCH_INDIRECT: 0
BRANCH_CONDITIONAL: 1.37
BRANCH_DIRECT_CALL: 0
BRANCH_INDIRECT_CALL: 0
BRANCH_RETURN: 0.131

LLC TOTAL        ACCESS:     328046 HIT:     155998 MISS:     172048
LLC LOAD         ACCESS:      15757 HIT:         14 MISS:      15743
LLC RFO          ACCESS:     156277 HIT:         13 MISS:     156264
LLC PREFETCH     ACCESS:          0 HIT:          0 MISS:          0
LLC WRITE        ACCESS:     155991 HIT:     155968 MISS:         23
LLC TRANSLATION  ACCESS:         21 HIT:          3 MISS:         18
LLC PREFETCH REQUESTED:          0 ISSUED:          0 USEFUL:          0 USELESS:          0
LLC AVERAGE MISS LATENCY: 407.6 cycles
cpu0_DTLB TOTAL        ACCESS:   81621803 HIT:   81597725 MISS:      24078
cpu0_DTLB LOAD         ACCESS:   81621803 HIT:   81597725 MISS:      24078
cpu0_DTLB RFO          ACCESS:          0 HIT:          0 MISS:          0
cpu0_DTLB PREFETCH     ACCESS:          0 HIT:          0 MISS:          0
cpu0_DTLB WRITE        ACCESS:          0 HIT:          0 MISS:          0
cpu0_DTLB TRANSLATION  ACCESS:          0 HIT:          0 MISS:          0
cpu0_DTLB PREFETCH REQUESTED:          0 ISSUED:          0 USEFUL:          0 USELESS:          0
cpu0_DTLB AVERAGE MISS LATENCY: 19.47 cycles
cpu0_ITLB TOTAL        ACCESS:    1897937 HIT:    1897937 MISS:          0
cpu0_ITLB LOAD         ACCESS:    1897937 HIT:    1897937 MISS:          0
cpu0_ITLB RFO          ACCESS:          0 HIT:          0 MISS:          0
cpu0_ITLB PREFETCH     ACCESS:          0 HIT:          0 MISS:          0
cpu0_ITLB WRITE        ACCESS:          0 HIT:          0 MISS:          0
cpu0_ITLB TRANSLATION  ACCESS:          0 HIT:          0 MISS:          0
cpu0_ITLB PREFETCH REQUESTED:          0 ISSUED:          0 USEFUL:          0 USELESS:          0
cpu0_ITLB AVERAGE MISS LATENCY: -nan cycles
cpu0_L1D TOTAL        ACCESS:  125555327 HIT:  124363466 MISS:    1191861
cpu0_L1D LOAD         ACCESS:  104436641 HIT:  104393080 MISS:      43561
cpu0_L1D RFO          ACCESS:          0 HIT:          0 MISS:          0
cpu0_L1D PREFETCH     ACCESS:          0 HIT:          0 MISS:          0
cpu0_L1D WRITE        ACCESS:   21115990 HIT:   19967955 MISS:    1148035
cpu0_L1D TRANSLATION  ACCESS:       2696 HIT:       2431 MISS:        265
cpu0_L1D PREFETCH REQUESTED:          0 ISSUED:          0 USEFUL:          0 USELESS:          0
cpu0_L1D AVERAGE MISS LATENCY: 59.09 cycles
cpu0_L1I TOTAL        ACCESS:    2199016 HIT:    2199016 MISS:          0
cpu0_L1I LOAD         ACCESS:    2199016 HIT:    2199016 MISS:          0
cpu0_L1I RFO          ACCESS:          0 HIT:          0 MISS:          0
cpu0_L1I PREFETCH     ACCESS:          0 HIT:          0 MISS:          0
cpu0_L1I WRITE        ACCESS:          0 HIT:          0 MISS:          0
cpu0_L1I TRANSLATION  ACCESS:          0 HIT:          0 MISS:          0
cpu0_L1I PREFETCH REQUESTED:          0 ISSUED:          0 USEFUL:          0 USELESS:          0
cpu0_L1I AVERAGE MISS LATENCY: -nan cycles
cpu0_L2C TOTAL        ACCESS:     331240 HIT:     159161 MISS:     172079
cpu0_L2C LOAD         ACCESS:      16988 HIT:       1231 MISS:      15757
cpu0_L2C RFO          ACCESS:     157281 HIT:       1004 MISS:     156277
cpu0_L2C PREFETCH     ACCESS:          0 HIT:          0 MISS:          0
cpu0_L2C WRITE        ACCESS:     156706 HIT:     156682 MISS:         24
cpu0_L2C TRANSLATION  ACCESS:        265 HIT:        244 MISS:         21
cpu0_L2C PREFETCH REQUESTED:          0 ISSUED:          0 USEFUL:          0 USELESS:          0
cpu0_L2C AVERAGE MISS LATENCY: 428.6 cycles
cpu0_STLB TOTAL        ACCESS:       2816 HIT:        125 MISS:       2691
cpu0_STLB LOAD         ACCESS:       2816 HIT:        125 MISS:       2691
cpu0_STLB RFO          ACCESS:          0 HIT:          0 MISS:          0
cpu0_STLB PREFETCH     ACCESS:          0 HIT:          0 MISS:          0
cpu0_STLB WRITE        ACCESS:          0 HIT:          0 MISS:          0
cpu0_STLB TRANSLATION  ACCESS:          0 HIT:          0 MISS:          0
cpu0_STLB PREFETCH REQUESTED:          0 ISSUED:          0 USEFUL:          0 USELESS:          0
cpu0_STLB AVERAGE MISS LATENCY: 210.5 cycles

DRAM Statistics

Channel 0 RQ ROW_BUFFER_HIT:      59783
  ROW_BUFFER_MISS:     112242
 AVG DBUS CONGESTED CYCLE: 3.932
WQ ROW_BUFFER_HIT: Channel 0 
  ROW_BUFFER_MISS:      53925
  FULL:     102109
