WARNING: physical memory size is smaller than virtual memory size.

*** ChampSim Multicore Out-of-Order Simulator ***
Warmup Instructions: 1000000000
Simulation Instructions: 500000000
Number of CPUs: 1
Page size: 4096

Off-chip DRAM Size: 4 GiB Channels: 1 Width: 64-bit Data Race: 3200 MT/s
Heartbeat CPU 0 instructions: 10000002 cycles: 2521288 heartbeat IPC: 3.966 cumulative IPC: 3.966 (Simulation time: 00 hr 00 min 15 sec)
Heartbeat CPU 0 instructions: 20000002 cycles: 5034824 heartbeat IPC: 3.978 cumulative IPC: 3.972 (Simulation time: 00 hr 00 min 31 sec)
Heartbeat CPU 0 instructions: 30000000 cycles: 7565421 heartbeat IPC: 3.952 cumulative IPC: 3.965 (Simulation time: 00 hr 00 min 46 sec)
Heartbeat CPU 0 instructions: 40000001 cycles: 10096066 heartbeat IPC: 3.952 cumulative IPC: 3.962 (Simulation time: 00 hr 01 min 01 sec)
Heartbeat CPU 0 instructions: 50000000 cycles: 12626327 heartbeat IPC: 3.952 cumulative IPC: 3.96 (Simulation time: 00 hr 01 min 17 sec)
Heartbeat CPU 0 instructions: 60000000 cycles: 15158719 heartbeat IPC: 3.949 cumulative IPC: 3.958 (Simulation time: 00 hr 01 min 34 sec)
Heartbeat CPU 0 instructions: 70000001 cycles: 17691337 heartbeat IPC: 3.948 cumulative IPC: 3.957 (Simulation time: 00 hr 01 min 52 sec)
Heartbeat CPU 0 instructions: 80000001 cycles: 20223976 heartbeat IPC: 3.948 cumulative IPC: 3.956 (Simulation time: 00 hr 02 min 09 sec)
Heartbeat CPU 0 instructions: 90000003 cycles: 22756291 heartbeat IPC: 3.949 cumulative IPC: 3.955 (Simulation time: 00 hr 02 min 27 sec)
Heartbeat CPU 0 instructions: 100000003 cycles: 25289837 heartbeat IPC: 3.947 cumulative IPC: 3.954 (Simulation time: 00 hr 02 min 44 sec)
Heartbeat CPU 0 instructions: 110000003 cycles: 27824166 heartbeat IPC: 3.946 cumulative IPC: 3.953 (Simulation time: 00 hr 03 min 01 sec)
Heartbeat CPU 0 instructions: 120000003 cycles: 30359076 heartbeat IPC: 3.945 cumulative IPC: 3.953 (Simulation time: 00 hr 03 min 19 sec)
Heartbeat CPU 0 instructions: 130000002 cycles: 32894292 heartbeat IPC: 3.944 cumulative IPC: 3.952 (Simulation time: 00 hr 03 min 36 sec)
Heartbeat CPU 0 instructions: 140000000 cycles: 35429195 heartbeat IPC: 3.945 cumulative IPC: 3.952 (Simulation time: 00 hr 03 min 53 sec)
Heartbeat CPU 0 instructions: 150000001 cycles: 37962792 heartbeat IPC: 3.947 cumulative IPC: 3.951 (Simulation time: 00 hr 04 min 11 sec)
Heartbeat CPU 0 instructions: 160000000 cycles: 40496773 heartbeat IPC: 3.946 cumulative IPC: 3.951 (Simulation time: 00 hr 04 min 28 sec)
Heartbeat CPU 0 instructions: 170000003 cycles: 43029619 heartbeat IPC: 3.948 cumulative IPC: 3.951 (Simulation time: 00 hr 04 min 45 sec)
Heartbeat CPU 0 instructions: 180000003 cycles: 45563544 heartbeat IPC: 3.946 cumulative IPC: 3.951 (Simulation time: 00 hr 05 min 03 sec)
Heartbeat CPU 0 instructions: 190000002 cycles: 48096706 heartbeat IPC: 3.948 cumulative IPC: 3.95 (Simulation time: 00 hr 05 min 20 sec)
Heartbeat CPU 0 instructions: 200000001 cycles: 50629715 heartbeat IPC: 3.948 cumulative IPC: 3.95 (Simulation time: 00 hr 05 min 38 sec)
Heartbeat CPU 0 instructions: 210000002 cycles: 53163517 heartbeat IPC: 3.947 cumulative IPC: 3.95 (Simulation time: 00 hr 05 min 55 sec)
Heartbeat CPU 0 instructions: 220000002 cycles: 55696350 heartbeat IPC: 3.948 cumulative IPC: 3.95 (Simulation time: 00 hr 06 min 12 sec)
Heartbeat CPU 0 instructions: 230000000 cycles: 58230022 heartbeat IPC: 3.947 cumulative IPC: 3.95 (Simulation time: 00 hr 06 min 30 sec)
Heartbeat CPU 0 instructions: 240000003 cycles: 60763264 heartbeat IPC: 3.948 cumulative IPC: 3.95 (Simulation time: 00 hr 06 min 47 sec)
Heartbeat CPU 0 instructions: 250000002 cycles: 63296434 heartbeat IPC: 3.948 cumulative IPC: 3.95 (Simulation time: 00 hr 07 min 05 sec)
Heartbeat CPU 0 instructions: 260000003 cycles: 65829958 heartbeat IPC: 3.947 cumulative IPC: 3.95 (Simulation time: 00 hr 07 min 22 sec)
Heartbeat CPU 0 instructions: 270000002 cycles: 68363020 heartbeat IPC: 3.948 cumulative IPC: 3.95 (Simulation time: 00 hr 07 min 46 sec)
Heartbeat CPU 0 instructions: 280000001 cycles: 70896401 heartbeat IPC: 3.947 cumulative IPC: 3.949 (Simulation time: 00 hr 08 min 19 sec)
Heartbeat CPU 0 instructions: 290000001 cycles: 73429914 heartbeat IPC: 3.947 cumulative IPC: 3.949 (Simulation time: 00 hr 08 min 53 sec)
Heartbeat CPU 0 instructions: 300000000 cycles: 75963078 heartbeat IPC: 3.948 cumulative IPC: 3.949 (Simulation time: 00 hr 09 min 27 sec)
Heartbeat CPU 0 instructions: 310000000 cycles: 78496520 heartbeat IPC: 3.947 cumulative IPC: 3.949 (Simulation time: 00 hr 10 min 00 sec)
Heartbeat CPU 0 instructions: 320000002 cycles: 81029718 heartbeat IPC: 3.948 cumulative IPC: 3.949 (Simulation time: 00 hr 10 min 34 sec)
Heartbeat CPU 0 instructions: 330000001 cycles: 83563451 heartbeat IPC: 3.947 cumulative IPC: 3.949 (Simulation time: 00 hr 11 min 07 sec)
Heartbeat CPU 0 instructions: 340000001 cycles: 86097284 heartbeat IPC: 3.947 cumulative IPC: 3.949 (Simulation time: 00 hr 11 min 41 sec)
Heartbeat CPU 0 instructions: 350000000 cycles: 88632124 heartbeat IPC: 3.945 cumulative IPC: 3.949 (Simulation time: 00 hr 12 min 14 sec)
Heartbeat CPU 0 instructions: 360000001 cycles: 91167457 heartbeat IPC: 3.944 cumulative IPC: 3.949 (Simulation time: 00 hr 12 min 48 sec)
Heartbeat CPU 0 instructions: 370000002 cycles: 93702242 heartbeat IPC: 3.945 cumulative IPC: 3.949 (Simulation time: 00 hr 13 min 22 sec)
Heartbeat CPU 0 instructions: 380000000 cycles: 96236475 heartbeat IPC: 3.946 cumulative IPC: 3.949 (Simulation time: 00 hr 13 min 55 sec)
Heartbeat CPU 0 instructions: 390000000 cycles: 98769539 heartbeat IPC: 3.948 cumulative IPC: 3.949 (Simulation time: 00 hr 14 min 29 sec)
Heartbeat CPU 0 instructions: 400000003 cycles: 101302248 heartbeat IPC: 3.948 cumulative IPC: 3.949 (Simulation time: 00 hr 15 min 03 sec)
Heartbeat CPU 0 instructions: 410000002 cycles: 103834623 heartbeat IPC: 3.949 cumulative IPC: 3.949 (Simulation time: 00 hr 15 min 36 sec)
Heartbeat CPU 0 instructions: 420000004 cycles: 106367201 heartbeat IPC: 3.949 cumulative IPC: 3.949 (Simulation time: 00 hr 16 min 10 sec)
Heartbeat CPU 0 instructions: 430000001 cycles: 108899180 heartbeat IPC: 3.949 cumulative IPC: 3.949 (Simulation time: 00 hr 16 min 44 sec)
Heartbeat CPU 0 instructions: 440000003 cycles: 111429540 heartbeat IPC: 3.952 cumulative IPC: 3.949 (Simulation time: 00 hr 17 min 18 sec)
Heartbeat CPU 0 instructions: 450000004 cycles: 113959993 heartbeat IPC: 3.952 cumulative IPC: 3.949 (Simulation time: 00 hr 17 min 51 sec)
Heartbeat CPU 0 instructions: 460000001 cycles: 116490496 heartbeat IPC: 3.952 cumulative IPC: 3.949 (Simulation time: 00 hr 18 min 25 sec)
Heartbeat CPU 0 instructions: 470000003 cycles: 119000871 heartbeat IPC: 3.983 cumulative IPC: 3.95 (Simulation time: 00 hr 19 min 01 sec)
Heartbeat CPU 0 instructions: 480000002 cycles: 121526837 heartbeat IPC: 3.959 cumulative IPC: 3.95 (Simulation time: 00 hr 19 min 36 sec)
Heartbeat CPU 0 instructions: 490000001 cycles: 124061004 heartbeat IPC: 3.946 cumulative IPC: 3.95 (Simulation time: 00 hr 20 min 10 sec)
Heartbeat CPU 0 instructions: 500000003 cycles: 126594234 heartbeat IPC: 3.948 cumulative IPC: 3.95 (Simulation time: 00 hr 20 min 43 sec)
Heartbeat CPU 0 instructions: 510000003 cycles: 129126094 heartbeat IPC: 3.95 cumulative IPC: 3.95 (Simulation time: 00 hr 21 min 17 sec)
Heartbeat CPU 0 instructions: 520000001 cycles: 131658214 heartbeat IPC: 3.949 cumulative IPC: 3.95 (Simulation time: 00 hr 21 min 51 sec)
Heartbeat CPU 0 instructions: 530000001 cycles: 134179611 heartbeat IPC: 3.966 cumulative IPC: 3.95 (Simulation time: 00 hr 22 min 25 sec)
Heartbeat CPU 0 instructions: 540000003 cycles: 136699552 heartbeat IPC: 3.968 cumulative IPC: 3.95 (Simulation time: 00 hr 23 min 00 sec)
Heartbeat CPU 0 instructions: 550000003 cycles: 139219593 heartbeat IPC: 3.968 cumulative IPC: 3.951 (Simulation time: 00 hr 23 min 34 sec)
Heartbeat CPU 0 instructions: 560000003 cycles: 141739903 heartbeat IPC: 3.968 cumulative IPC: 3.951 (Simulation time: 00 hr 24 min 09 sec)
Heartbeat CPU 0 instructions: 570000003 cycles: 144259924 heartbeat IPC: 3.968 cumulative IPC: 3.951 (Simulation time: 00 hr 24 min 43 sec)
Heartbeat CPU 0 instructions: 580000003 cycles: 146779970 heartbeat IPC: 3.968 cumulative IPC: 3.951 (Simulation time: 00 hr 25 min 18 sec)
Heartbeat CPU 0 instructions: 590000001 cycles: 149299371 heartbeat IPC: 3.969 cumulative IPC: 3.952 (Simulation time: 00 hr 25 min 52 sec)
Heartbeat CPU 0 instructions: 600000001 cycles: 151818395 heartbeat IPC: 3.97 cumulative IPC: 3.952 (Simulation time: 00 hr 26 min 27 sec)
Heartbeat CPU 0 instructions: 610000001 cycles: 154337414 heartbeat IPC: 3.97 cumulative IPC: 3.952 (Simulation time: 00 hr 27 min 01 sec)
Heartbeat CPU 0 instructions: 620000001 cycles: 156856425 heartbeat IPC: 3.97 cumulative IPC: 3.953 (Simulation time: 00 hr 27 min 36 sec)
Heartbeat CPU 0 instructions: 630000001 cycles: 159375431 heartbeat IPC: 3.97 cumulative IPC: 3.953 (Simulation time: 00 hr 28 min 10 sec)
Heartbeat CPU 0 instructions: 640000002 cycles: 161896306 heartbeat IPC: 3.967 cumulative IPC: 3.953 (Simulation time: 00 hr 28 min 45 sec)
Heartbeat CPU 0 instructions: 650000003 cycles: 164428039 heartbeat IPC: 3.95 cumulative IPC: 3.953 (Simulation time: 00 hr 29 min 19 sec)
Heartbeat CPU 0 instructions: 660000003 cycles: 166961157 heartbeat IPC: 3.948 cumulative IPC: 3.953 (Simulation time: 00 hr 29 min 53 sec)
Heartbeat CPU 0 instructions: 670000003 cycles: 169488828 heartbeat IPC: 3.956 cumulative IPC: 3.953 (Simulation time: 00 hr 30 min 28 sec)
Heartbeat CPU 0 instructions: 680000003 cycles: 172023016 heartbeat IPC: 3.946 cumulative IPC: 3.953 (Simulation time: 00 hr 31 min 03 sec)
Heartbeat CPU 0 instructions: 690000001 cycles: 174557636 heartbeat IPC: 3.945 cumulative IPC: 3.953 (Simulation time: 00 hr 31 min 37 sec)
Heartbeat CPU 0 instructions: 700000003 cycles: 177092270 heartbeat IPC: 3.945 cumulative IPC: 3.953 (Simulation time: 00 hr 32 min 11 sec)
Heartbeat CPU 0 instructions: 710000000 cycles: 179626798 heartbeat IPC: 3.946 cumulative IPC: 3.953 (Simulation time: 00 hr 32 min 45 sec)
Heartbeat CPU 0 instructions: 720000001 cycles: 182159492 heartbeat IPC: 3.948 cumulative IPC: 3.953 (Simulation time: 00 hr 33 min 20 sec)
Heartbeat CPU 0 instructions: 730000003 cycles: 184666698 heartbeat IPC: 3.989 cumulative IPC: 3.953 (Simulation time: 00 hr 33 min 57 sec)
Heartbeat CPU 0 instructions: 740000000 cycles: 187196856 heartbeat IPC: 3.952 cumulative IPC: 3.953 (Simulation time: 00 hr 34 min 32 sec)
Heartbeat CPU 0 instructions: 750000001 cycles: 189732012 heartbeat IPC: 3.945 cumulative IPC: 3.953 (Simulation time: 00 hr 35 min 06 sec)
Heartbeat CPU 0 instructions: 760000003 cycles: 192266891 heartbeat IPC: 3.945 cumulative IPC: 3.953 (Simulation time: 00 hr 35 min 40 sec)
Heartbeat CPU 0 instructions: 770000000 cycles: 194802064 heartbeat IPC: 3.945 cumulative IPC: 3.953 (Simulation time: 00 hr 36 min 14 sec)
Heartbeat CPU 0 instructions: 780000001 cycles: 197336129 heartbeat IPC: 3.946 cumulative IPC: 3.953 (Simulation time: 00 hr 36 min 49 sec)
Heartbeat CPU 0 instructions: 790000000 cycles: 199869997 heartbeat IPC: 3.947 cumulative IPC: 3.953 (Simulation time: 00 hr 37 min 23 sec)
Heartbeat CPU 0 instructions: 800000003 cycles: 202400416 heartbeat IPC: 3.952 cumulative IPC: 3.953 (Simulation time: 00 hr 37 min 57 sec)
Heartbeat CPU 0 instructions: 810000001 cycles: 204927046 heartbeat IPC: 3.958 cumulative IPC: 3.953 (Simulation time: 00 hr 38 min 32 sec)
Heartbeat CPU 0 instructions: 820000000 cycles: 207452527 heartbeat IPC: 3.96 cumulative IPC: 3.953 (Simulation time: 00 hr 39 min 07 sec)
Heartbeat CPU 0 instructions: 830000001 cycles: 209982732 heartbeat IPC: 3.952 cumulative IPC: 3.953 (Simulation time: 00 hr 39 min 42 sec)
Heartbeat CPU 0 instructions: 840000000 cycles: 212512909 heartbeat IPC: 3.952 cumulative IPC: 3.953 (Simulation time: 00 hr 40 min 16 sec)
Heartbeat CPU 0 instructions: 850000001 cycles: 215043120 heartbeat IPC: 3.952 cumulative IPC: 3.953 (Simulation time: 00 hr 40 min 51 sec)
Heartbeat CPU 0 instructions: 860000000 cycles: 217573316 heartbeat IPC: 3.952 cumulative IPC: 3.953 (Simulation time: 00 hr 41 min 25 sec)
Heartbeat CPU 0 instructions: 870000001 cycles: 220103531 heartbeat IPC: 3.952 cumulative IPC: 3.953 (Simulation time: 00 hr 42 min 00 sec)
Heartbeat CPU 0 instructions: 880000002 cycles: 222633760 heartbeat IPC: 3.952 cumulative IPC: 3.953 (Simulation time: 00 hr 42 min 34 sec)
Heartbeat CPU 0 instructions: 890000001 cycles: 225163920 heartbeat IPC: 3.952 cumulative IPC: 3.953 (Simulation time: 00 hr 43 min 09 sec)
Heartbeat CPU 0 instructions: 900000001 cycles: 227694075 heartbeat IPC: 3.952 cumulative IPC: 3.953 (Simulation time: 00 hr 43 min 43 sec)
Heartbeat CPU 0 instructions: 910000003 cycles: 230224222 heartbeat IPC: 3.952 cumulative IPC: 3.953 (Simulation time: 00 hr 44 min 18 sec)
Heartbeat CPU 0 instructions: 920000002 cycles: 232754387 heartbeat IPC: 3.952 cumulative IPC: 3.953 (Simulation time: 00 hr 44 min 52 sec)
Heartbeat CPU 0 instructions: 930000001 cycles: 235277263 heartbeat IPC: 3.964 cumulative IPC: 3.953 (Simulation time: 00 hr 45 min 28 sec)
Heartbeat CPU 0 instructions: 940000000 cycles: 237807708 heartbeat IPC: 3.952 cumulative IPC: 3.953 (Simulation time: 00 hr 46 min 02 sec)
Heartbeat CPU 0 instructions: 950000000 cycles: 240336961 heartbeat IPC: 3.954 cumulative IPC: 3.953 (Simulation time: 00 hr 46 min 37 sec)
Heartbeat CPU 0 instructions: 960000000 cycles: 242867638 heartbeat IPC: 3.952 cumulative IPC: 3.953 (Simulation time: 00 hr 47 min 12 sec)
Heartbeat CPU 0 instructions: 970000001 cycles: 245402000 heartbeat IPC: 3.946 cumulative IPC: 3.953 (Simulation time: 00 hr 47 min 46 sec)
Heartbeat CPU 0 instructions: 980000002 cycles: 247936828 heartbeat IPC: 3.945 cumulative IPC: 3.953 (Simulation time: 00 hr 48 min 21 sec)
Heartbeat CPU 0 instructions: 990000001 cycles: 250471964 heartbeat IPC: 3.945 cumulative IPC: 3.953 (Simulation time: 00 hr 48 min 55 sec)
Heartbeat CPU 0 instructions: 1000000002 cycles: 253006951 heartbeat IPC: 3.945 cumulative IPC: 3.952 (Simulation time: 00 hr 49 min 29 sec)
Warmup finished CPU 0 instructions: 1000000002 cycles: 253006952 cumulative IPC: 3.952 (Simulation time: 00 hr 49 min 29 sec)
Warmup complete CPU 0 instructions: 1000000002 cycles: 253006952 cumulative IPC: 3.952 (Simulation time: 00 hr 49 min 29 sec)
Heartbeat CPU 0 instructions: 1010000000 cycles: 256641045 heartbeat IPC: 2.752 cumulative IPC: 2.752 (Simulation time: 00 hr 50 min 20 sec)
Heartbeat CPU 0 instructions: 1020000001 cycles: 261377645 heartbeat IPC: 2.111 cumulative IPC: 2.389 (Simulation time: 00 hr 51 min 22 sec)
Heartbeat CPU 0 instructions: 1030000002 cycles: 264101386 heartbeat IPC: 3.671 cumulative IPC: 2.704 (Simulation time: 00 hr 52 min 01 sec)
Heartbeat CPU 0 instructions: 1040000003 cycles: 266823842 heartbeat IPC: 3.673 cumulative IPC: 2.895 (Simulation time: 00 hr 52 min 41 sec)
Heartbeat CPU 0 instructions: 1050000000 cycles: 269545539 heartbeat IPC: 3.674 cumulative IPC: 3.023 (Simulation time: 00 hr 53 min 21 sec)
Heartbeat CPU 0 instructions: 1060000003 cycles: 272374979 heartbeat IPC: 3.534 cumulative IPC: 3.098 (Simulation time: 00 hr 54 min 02 sec)
Heartbeat CPU 0 instructions: 1070000002 cycles: 275183175 heartbeat IPC: 3.561 cumulative IPC: 3.157 (Simulation time: 00 hr 54 min 42 sec)
Heartbeat CPU 0 instructions: 1080000001 cycles: 277998763 heartbeat IPC: 3.552 cumulative IPC: 3.201 (Simulation time: 00 hr 55 min 23 sec)
Heartbeat CPU 0 instructions: 1090000000 cycles: 280814729 heartbeat IPC: 3.551 cumulative IPC: 3.237 (Simulation time: 00 hr 56 min 05 sec)
Heartbeat CPU 0 instructions: 1100000001 cycles: 283621141 heartbeat IPC: 3.563 cumulative IPC: 3.266 (Simulation time: 00 hr 56 min 45 sec)
Heartbeat CPU 0 instructions: 1110000001 cycles: 286413081 heartbeat IPC: 3.582 cumulative IPC: 3.293 (Simulation time: 00 hr 57 min 25 sec)
Heartbeat CPU 0 instructions: 1120000003 cycles: 289206816 heartbeat IPC: 3.579 cumulative IPC: 3.315 (Simulation time: 00 hr 58 min 07 sec)
Heartbeat CPU 0 instructions: 1130000002 cycles: 292007625 heartbeat IPC: 3.57 cumulative IPC: 3.333 (Simulation time: 00 hr 58 min 48 sec)
Heartbeat CPU 0 instructions: 1140000003 cycles: 294787694 heartbeat IPC: 3.597 cumulative IPC: 3.351 (Simulation time: 00 hr 59 min 29 sec)
Heartbeat CPU 0 instructions: 1150000000 cycles: 297587753 heartbeat IPC: 3.571 cumulative IPC: 3.365 (Simulation time: 01 hr 00 min 09 sec)
Heartbeat CPU 0 instructions: 1160000000 cycles: 300375194 heartbeat IPC: 3.588 cumulative IPC: 3.378 (Simulation time: 01 hr 00 min 50 sec)
Heartbeat CPU 0 instructions: 1170000001 cycles: 303175828 heartbeat IPC: 3.571 cumulative IPC: 3.389 (Simulation time: 01 hr 01 min 30 sec)
Heartbeat CPU 0 instructions: 1180000000 cycles: 305962453 heartbeat IPC: 3.589 cumulative IPC: 3.399 (Simulation time: 01 hr 02 min 10 sec)
Heartbeat CPU 0 instructions: 1190000000 cycles: 308761205 heartbeat IPC: 3.573 cumulative IPC: 3.408 (Simulation time: 01 hr 02 min 51 sec)
Heartbeat CPU 0 instructions: 1200000004 cycles: 311547521 heartbeat IPC: 3.589 cumulative IPC: 3.416 (Simulation time: 01 hr 03 min 31 sec)
Heartbeat CPU 0 instructions: 1210000001 cycles: 314321491 heartbeat IPC: 3.605 cumulative IPC: 3.425 (Simulation time: 01 hr 04 min 11 sec)
Heartbeat CPU 0 instructions: 1220000000 cycles: 317118663 heartbeat IPC: 3.575 cumulative IPC: 3.432 (Simulation time: 01 hr 04 min 52 sec)
Heartbeat CPU 0 instructions: 1230000001 cycles: 319903517 heartbeat IPC: 3.591 cumulative IPC: 3.438 (Simulation time: 01 hr 05 min 33 sec)
Heartbeat CPU 0 instructions: 1240000004 cycles: 322701367 heartbeat IPC: 3.574 cumulative IPC: 3.444 (Simulation time: 01 hr 06 min 13 sec)
Heartbeat CPU 0 instructions: 1250000001 cycles: 325495576 heartbeat IPC: 3.579 cumulative IPC: 3.449 (Simulation time: 01 hr 06 min 54 sec)
Heartbeat CPU 0 instructions: 1260000001 cycles: 328282236 heartbeat IPC: 3.589 cumulative IPC: 3.454 (Simulation time: 01 hr 07 min 35 sec)
Heartbeat CPU 0 instructions: 1270000002 cycles: 331075087 heartbeat IPC: 3.581 cumulative IPC: 3.459 (Simulation time: 01 hr 08 min 16 sec)
Heartbeat CPU 0 instructions: 1280000000 cycles: 333870969 heartbeat IPC: 3.577 cumulative IPC: 3.463 (Simulation time: 01 hr 08 min 57 sec)
Heartbeat CPU 0 instructions: 1290000002 cycles: 336699030 heartbeat IPC: 3.536 cumulative IPC: 3.465 (Simulation time: 01 hr 09 min 38 sec)
Heartbeat CPU 0 instructions: 1300000004 cycles: 339510466 heartbeat IPC: 3.557 cumulative IPC: 3.468 (Simulation time: 01 hr 10 min 20 sec)
Heartbeat CPU 0 instructions: 1310000004 cycles: 342295754 heartbeat IPC: 3.59 cumulative IPC: 3.472 (Simulation time: 01 hr 11 min 00 sec)
Heartbeat CPU 0 instructions: 1320000000 cycles: 345129480 heartbeat IPC: 3.529 cumulative IPC: 3.474 (Simulation time: 01 hr 11 min 42 sec)
Heartbeat CPU 0 instructions: 1330000000 cycles: 347853157 heartbeat IPC: 3.672 cumulative IPC: 3.479 (Simulation time: 01 hr 12 min 22 sec)
Heartbeat CPU 0 instructions: 1340000004 cycles: 350572651 heartbeat IPC: 3.677 cumulative IPC: 3.485 (Simulation time: 01 hr 13 min 01 sec)
Heartbeat CPU 0 instructions: 1350000000 cycles: 353294846 heartbeat IPC: 3.674 cumulative IPC: 3.49 (Simulation time: 01 hr 13 min 41 sec)
Heartbeat CPU 0 instructions: 1360000004 cycles: 357290336 heartbeat IPC: 2.503 cumulative IPC: 3.452 (Simulation time: 01 hr 14 min 35 sec)
Heartbeat CPU 0 instructions: 1370000004 cycles: 361554991 heartbeat IPC: 2.345 cumulative IPC: 3.409 (Simulation time: 01 hr 15 min 31 sec)
Heartbeat CPU 0 instructions: 1380000000 cycles: 364297747 heartbeat IPC: 3.646 cumulative IPC: 3.414 (Simulation time: 01 hr 16 min 11 sec)
Heartbeat CPU 0 instructions: 1390000002 cycles: 367040243 heartbeat IPC: 3.646 cumulative IPC: 3.42 (Simulation time: 01 hr 16 min 51 sec)
Heartbeat CPU 0 instructions: 1400000004 cycles: 369783640 heartbeat IPC: 3.645 cumulative IPC: 3.425 (Simulation time: 01 hr 17 min 31 sec)
Heartbeat CPU 0 instructions: 1410000004 cycles: 372548033 heartbeat IPC: 3.617 cumulative IPC: 3.43 (Simulation time: 01 hr 18 min 11 sec)
Heartbeat CPU 0 instructions: 1420000002 cycles: 375283514 heartbeat IPC: 3.656 cumulative IPC: 3.435 (Simulation time: 01 hr 18 min 50 sec)
Heartbeat CPU 0 instructions: 1430000000 cycles: 378019305 heartbeat IPC: 3.655 cumulative IPC: 3.44 (Simulation time: 01 hr 19 min 30 sec)
Heartbeat CPU 0 instructions: 1440000000 cycles: 380753983 heartbeat IPC: 3.657 cumulative IPC: 3.444 (Simulation time: 01 hr 20 min 10 sec)
Heartbeat CPU 0 instructions: 1450000002 cycles: 383550431 heartbeat IPC: 3.576 cumulative IPC: 3.447 (Simulation time: 01 hr 20 min 51 sec)
Heartbeat CPU 0 instructions: 1460000003 cycles: 386310384 heartbeat IPC: 3.623 cumulative IPC: 3.451 (Simulation time: 01 hr 21 min 31 sec)
Heartbeat CPU 0 instructions: 1470000000 cycles: 389120267 heartbeat IPC: 3.559 cumulative IPC: 3.453 (Simulation time: 01 hr 22 min 12 sec)
Heartbeat CPU 0 instructions: 1480000000 cycles: 391988505 heartbeat IPC: 3.486 cumulative IPC: 3.454 (Simulation time: 01 hr 22 min 54 sec)
Heartbeat CPU 0 instructions: 1490000000 cycles: 394767015 heartbeat IPC: 3.599 cumulative IPC: 3.457 (Simulation time: 01 hr 23 min 34 sec)
Heartbeat CPU 0 instructions: 1500000002 cycles: 397554338 heartbeat IPC: 3.588 cumulative IPC: 3.459 (Simulation time: 01 hr 24 min 14 sec)
Simulation finished CPU 0 instructions: 500000000 cycles: 144547387 cumulative IPC: 3.459 (Simulation time: 01 hr 24 min 14 sec)
Simulation complete CPU 0 instructions: 500000000 cycles: 144547387 cumulative IPC: 3.459 (Simulation time: 01 hr 24 min 14 sec)

ChampSim completed all CPUs

=== Simulation ===
CPU 0 runs traces/603.bwaves_s-1080B.champsimtrace.xz
Region of Interest Statistics

CPU 0 cumulative IPC: 3.459 instructions: 500000000 cycles: 144547387
CPU 0 Branch Prediction Accuracy: 99.07% MPKI: 1.354 Average ROB Occupancy at Mispredict: 127.7
Branch type MPKI
BRANCH_DIRECT_JUMP: 0.186
BRANCH_INDIRECT: 0
BRANCH_CONDITIONAL: 1.04
BRANCH_DIRECT_CALL: 0
BRANCH_INDIRECT_CALL: 0
BRANCH_RETURN: 0.131

LLC TOTAL        ACCESS:     328050 HIT:     156001 MISS:     172049
LLC LOAD         ACCESS:      15779 HIT:         14 MISS:      15765
LLC RFO          ACCESS:     156254 HIT:         13 MISS:     156241
LLC PREFETCH     ACCESS:          0 HIT:          0 MISS:          0
LLC WRITE        ACCESS:     155996 HIT:     155971 MISS:         25
LLC TRANSLATION  ACCESS:         21 HIT:          3 MISS:         18
LLC PREFETCH REQUESTED:          0 ISSUED:          0 USEFUL:          0 USELESS:          0
LLC AVERAGE MISS LATENCY: 409.1 cycles
cpu0_DTLB TOTAL        ACCESS:   81992673 HIT:   81968708 MISS:      23965
cpu0_DTLB LOAD         ACCESS:   81992673 HIT:   81968708 MISS:      23965
cpu0_DTLB RFO          ACCESS:          0 HIT:          0 MISS:          0
cpu0_DTLB PREFETCH     ACCESS:          0 HIT:          0 MISS:          0
cpu0_DTLB WRITE        ACCESS:          0 HIT:          0 MISS:          0
cpu0_DTLB TRANSLATION  ACCESS:          0 HIT:          0 MISS:          0
cpu0_DTLB PREFETCH REQUESTED:          0 ISSUED:          0 USEFUL:          0 USELESS:          0
cpu0_DTLB AVERAGE MISS LATENCY: 19.68 cycles
cpu0_ITLB TOTAL        ACCESS:    1898747 HIT:    1898747 MISS:          0
cpu0_ITLB LOAD         ACCESS:    1898747 HIT:    1898747 MISS:          0
cpu0_ITLB RFO          ACCESS:          0 HIT:          0 MISS:          0
cpu0_ITLB PREFETCH     ACCESS:          0 HIT:          0 MISS:          0
cpu0_ITLB WRITE        ACCESS:          0 HIT:          0 MISS:          0
cpu0_ITLB TRANSLATION  ACCESS:          0 HIT:          0 MISS:          0
cpu0_ITLB PREFETCH REQUESTED:          0 ISSUED:          0 USEFUL:          0 USELESS:          0
cpu0_ITLB AVERAGE MISS LATENCY: -nan cycles
cpu0_L1D TOTAL        ACCESS:  126169913 HIT:  124977512 MISS:    1192401
cpu0_L1D LOAD         ACCESS:  105055383 HIT:  105011880 MISS:      43503
cpu0_L1D RFO          ACCESS:          0 HIT:          0 MISS:          0
cpu0_L1D PREFETCH     ACCESS:          0 HIT:          0 MISS:          0
cpu0_L1D WRITE        ACCESS:   21111834 HIT:   19963201 MISS:    1148633
cpu0_L1D TRANSLATION  ACCESS:       2696 HIT:       2431 MISS:        265
cpu0_L1D PREFETCH REQUESTED:          0 ISSUED:          0 USEFUL:          0 USELESS:          0
cpu0_L1D AVERAGE MISS LATENCY: 59.26 cycles
cpu0_L1I TOTAL        ACCESS:    2200375 HIT:    2200375 MISS:          0
cpu0_L1I LOAD         ACCESS:    2200375 HIT:    2200375 MISS:          0
cpu0_L1I RFO          ACCESS:          0 HIT:          0 MISS:          0
cpu0_L1I PREFETCH     ACCESS:          0 HIT:          0 MISS:          0
cpu0_L1I WRITE        ACCESS:          0 HIT:          0 MISS:          0
cpu0_L1I TRANSLATION  ACCESS:          0 HIT:          0 MISS:          0
cpu0_L1I PREFETCH REQUESTED:          0 ISSUED:          0 USEFUL:          0 USELESS:          0
cpu0_L1I AVERAGE MISS LATENCY: -nan cycles
cpu0_L2C TOTAL        ACCESS:     331517 HIT:     159444 MISS:     172073
cpu0_L2C LOAD         ACCESS:      17011 HIT:       1232 MISS:      15779
cpu0_L2C RFO          ACCESS:     157390 HIT:       1136 MISS:     156254
cpu0_L2C PREFETCH     ACCESS:          0 HIT:          0 MISS:          0
cpu0_L2C WRITE        ACCESS:     156851 HIT:     156832 MISS:         19
cpu0_L2C TRANSLATION  ACCESS:        265 HIT:        244 MISS:         21
cpu0_L2C PREFETCH REQUESTED:          0 ISSUED:          0 USEFUL:          0 USELESS:          0
cpu0_L2C AVERAGE MISS LATENCY: 430.1 cycles
cpu0_STLB TOTAL        ACCESS:       2816 HIT:        125 MISS:       2691
cpu0_STLB LOAD         ACCESS:       2816 HIT:        125 MISS:       2691
cpu0_STLB RFO          ACCESS:          0 HIT:          0 MISS:          0
cpu0_STLB PREFETCH     ACCESS:          0 HIT:          0 MISS:          0
cpu0_STLB WRITE        ACCESS:          0 HIT:          0 MISS:          0
cpu0_STLB TRANSLATION  ACCESS:          0 HIT:          0 MISS:          0
cpu0_STLB PREFETCH REQUESTED:          0 ISSUED:          0 USEFUL:          0 USELESS:          0
cpu0_STLB AVERAGE MISS LATENCY: 210.2 cycles

DRAM Statistics

Channel 0 RQ ROW_BUFFER_HIT:      59700
  ROW_BUFFER_MISS:     112324
 AVG DBUS CONGESTED CYCLE: 3.932
WQ ROW_BUFFER_HIT: Channel 0 
  ROW_BUFFER_MISS:      53609
  FULL:     102427
