WARNING: physical memory size is smaller than virtual memory size.

*** ChampSim Multicore Out-of-Order Simulator ***
Warmup Instructions: 1000000000
Simulation Instructions: 500000000
Number of CPUs: 1
Page size: 4096

Off-chip DRAM Size: 4 GiB Channels: 1 Width: 64-bit Data Race: 3200 MT/s
Heartbeat CPU 0 instructions: 10000002 cycles: 2521301 heartbeat IPC: 3.966 cumulative IPC: 3.966 (Simulation time: 00 hr 00 min 22 sec)
Heartbeat CPU 0 instructions: 20000002 cycles: 5034838 heartbeat IPC: 3.978 cumulative IPC: 3.972 (Simulation time: 00 hr 00 min 57 sec)
Heartbeat CPU 0 instructions: 30000000 cycles: 7565441 heartbeat IPC: 3.952 cumulative IPC: 3.965 (Simulation time: 00 hr 01 min 31 sec)
Heartbeat CPU 0 instructions: 40000001 cycles: 10096085 heartbeat IPC: 3.952 cumulative IPC: 3.962 (Simulation time: 00 hr 02 min 05 sec)
Heartbeat CPU 0 instructions: 50000000 cycles: 12626347 heartbeat IPC: 3.952 cumulative IPC: 3.96 (Simulation time: 00 hr 02 min 39 sec)
Heartbeat CPU 0 instructions: 60000000 cycles: 15158739 heartbeat IPC: 3.949 cumulative IPC: 3.958 (Simulation time: 00 hr 03 min 13 sec)
Heartbeat CPU 0 instructions: 70000001 cycles: 17691363 heartbeat IPC: 3.948 cumulative IPC: 3.957 (Simulation time: 00 hr 03 min 46 sec)
Heartbeat CPU 0 instructions: 80000001 cycles: 20224001 heartbeat IPC: 3.948 cumulative IPC: 3.956 (Simulation time: 00 hr 04 min 20 sec)
Heartbeat CPU 0 instructions: 90000003 cycles: 22756321 heartbeat IPC: 3.949 cumulative IPC: 3.955 (Simulation time: 00 hr 04 min 53 sec)
Heartbeat CPU 0 instructions: 100000003 cycles: 25289870 heartbeat IPC: 3.947 cumulative IPC: 3.954 (Simulation time: 00 hr 05 min 27 sec)
Heartbeat CPU 0 instructions: 110000003 cycles: 27824195 heartbeat IPC: 3.946 cumulative IPC: 3.953 (Simulation time: 00 hr 06 min 01 sec)
Heartbeat CPU 0 instructions: 120000003 cycles: 30359104 heartbeat IPC: 3.945 cumulative IPC: 3.953 (Simulation time: 00 hr 06 min 34 sec)
Heartbeat CPU 0 instructions: 130000002 cycles: 32894317 heartbeat IPC: 3.944 cumulative IPC: 3.952 (Simulation time: 00 hr 07 min 08 sec)
Heartbeat CPU 0 instructions: 140000000 cycles: 35429217 heartbeat IPC: 3.945 cumulative IPC: 3.952 (Simulation time: 00 hr 07 min 41 sec)
Heartbeat CPU 0 instructions: 150000001 cycles: 37962811 heartbeat IPC: 3.947 cumulative IPC: 3.951 (Simulation time: 00 hr 08 min 15 sec)
Heartbeat CPU 0 instructions: 160000000 cycles: 40496786 heartbeat IPC: 3.946 cumulative IPC: 3.951 (Simulation time: 00 hr 08 min 48 sec)
Heartbeat CPU 0 instructions: 170000003 cycles: 43029630 heartbeat IPC: 3.948 cumulative IPC: 3.951 (Simulation time: 00 hr 09 min 22 sec)
Heartbeat CPU 0 instructions: 180000003 cycles: 45563548 heartbeat IPC: 3.946 cumulative IPC: 3.951 (Simulation time: 00 hr 09 min 56 sec)
Heartbeat CPU 0 instructions: 190000002 cycles: 48096708 heartbeat IPC: 3.948 cumulative IPC: 3.95 (Simulation time: 00 hr 10 min 29 sec)
Heartbeat CPU 0 instructions: 200000001 cycles: 50629721 heartbeat IPC: 3.948 cumulative IPC: 3.95 (Simulation time: 00 hr 11 min 03 sec)
Heartbeat CPU 0 instructions: 210000002 cycles: 53163520 heartbeat IPC: 3.947 cumulative IPC: 3.95 (Simulation time: 00 hr 11 min 37 sec)
Heartbeat CPU 0 instructions: 220000002 cycles: 55696351 heartbeat IPC: 3.948 cumulative IPC: 3.95 (Simulation time: 00 hr 12 min 11 sec)
Heartbeat CPU 0 instructions: 230000000 cycles: 58230028 heartbeat IPC: 3.947 cumulative IPC: 3.95 (Simulation time: 00 hr 12 min 45 sec)
Heartbeat CPU 0 instructions: 240000003 cycles: 60763264 heartbeat IPC: 3.948 cumulative IPC: 3.95 (Simulation time: 00 hr 13 min 14 sec)
Heartbeat CPU 0 instructions: 250000002 cycles: 63296429 heartbeat IPC: 3.948 cumulative IPC: 3.95 (Simulation time: 00 hr 13 min 47 sec)
Heartbeat CPU 0 instructions: 260000003 cycles: 65829944 heartbeat IPC: 3.947 cumulative IPC: 3.95 (Simulation time: 00 hr 14 min 21 sec)
Heartbeat CPU 0 instructions: 270000002 cycles: 68363000 heartbeat IPC: 3.948 cumulative IPC: 3.95 (Simulation time: 00 hr 14 min 54 sec)
Heartbeat CPU 0 instructions: 280000001 cycles: 70896371 heartbeat IPC: 3.947 cumulative IPC: 3.949 (Simulation time: 00 hr 15 min 27 sec)
Heartbeat CPU 0 instructions: 290000001 cycles: 73429878 heartbeat IPC: 3.947 cumulative IPC: 3.949 (Simulation time: 00 hr 16 min 01 sec)
Heartbeat CPU 0 instructions: 300000000 cycles: 75963024 heartbeat IPC: 3.948 cumulative IPC: 3.949 (Simulation time: 00 hr 16 min 34 sec)
Heartbeat CPU 0 instructions: 310000000 cycles: 78496467 heartbeat IPC: 3.947 cumulative IPC: 3.949 (Simulation time: 00 hr 17 min 08 sec)
Heartbeat CPU 0 instructions: 320000002 cycles: 81029665 heartbeat IPC: 3.948 cumulative IPC: 3.949 (Simulation time: 00 hr 17 min 42 sec)
Heartbeat CPU 0 instructions: 330000001 cycles: 83563392 heartbeat IPC: 3.947 cumulative IPC: 3.949 (Simulation time: 00 hr 18 min 15 sec)
Heartbeat CPU 0 instructions: 340000001 cycles: 86097220 heartbeat IPC: 3.947 cumulative IPC: 3.949 (Simulation time: 00 hr 18 min 49 sec)
Heartbeat CPU 0 instructions: 350000000 cycles: 88632050 heartbeat IPC: 3.945 cumulative IPC: 3.949 (Simulation time: 00 hr 19 min 14 sec)
Heartbeat CPU 0 instructions: 360000001 cycles: 91167381 heartbeat IPC: 3.944 cumulative IPC: 3.949 (Simulation time: 00 hr 19 min 48 sec)
Heartbeat CPU 0 instructions: 370000002 cycles: 93702166 heartbeat IPC: 3.945 cumulative IPC: 3.949 (Simulation time: 00 hr 20 min 22 sec)
Heartbeat CPU 0 instructions: 380000000 cycles: 96236400 heartbeat IPC: 3.946 cumulative IPC: 3.949 (Simulation time: 00 hr 20 min 56 sec)
Heartbeat CPU 0 instructions: 390000000 cycles: 98769460 heartbeat IPC: 3.948 cumulative IPC: 3.949 (Simulation time: 00 hr 21 min 30 sec)
Heartbeat CPU 0 instructions: 400000003 cycles: 101302163 heartbeat IPC: 3.948 cumulative IPC: 3.949 (Simulation time: 00 hr 22 min 04 sec)
Heartbeat CPU 0 instructions: 410000002 cycles: 103834524 heartbeat IPC: 3.949 cumulative IPC: 3.949 (Simulation time: 00 hr 22 min 39 sec)
Heartbeat CPU 0 instructions: 420000004 cycles: 106367095 heartbeat IPC: 3.949 cumulative IPC: 3.949 (Simulation time: 00 hr 23 min 09 sec)
Heartbeat CPU 0 instructions: 430000001 cycles: 108899065 heartbeat IPC: 3.949 cumulative IPC: 3.949 (Simulation time: 00 hr 23 min 38 sec)
Heartbeat CPU 0 instructions: 440000003 cycles: 111429423 heartbeat IPC: 3.952 cumulative IPC: 3.949 (Simulation time: 00 hr 24 min 04 sec)
Heartbeat CPU 0 instructions: 450000004 cycles: 113959878 heartbeat IPC: 3.952 cumulative IPC: 3.949 (Simulation time: 00 hr 24 min 22 sec)
Heartbeat CPU 0 instructions: 460000001 cycles: 116490380 heartbeat IPC: 3.952 cumulative IPC: 3.949 (Simulation time: 00 hr 24 min 40 sec)
Heartbeat CPU 0 instructions: 470000003 cycles: 119000755 heartbeat IPC: 3.983 cumulative IPC: 3.95 (Simulation time: 00 hr 25 min 01 sec)
Heartbeat CPU 0 instructions: 480000002 cycles: 121526725 heartbeat IPC: 3.959 cumulative IPC: 3.95 (Simulation time: 00 hr 25 min 19 sec)
Heartbeat CPU 0 instructions: 490000001 cycles: 124060887 heartbeat IPC: 3.946 cumulative IPC: 3.95 (Simulation time: 00 hr 25 min 37 sec)
Heartbeat CPU 0 instructions: 500000003 cycles: 126594116 heartbeat IPC: 3.948 cumulative IPC: 3.95 (Simulation time: 00 hr 25 min 56 sec)
Heartbeat CPU 0 instructions: 510000003 cycles: 129125967 heartbeat IPC: 3.95 cumulative IPC: 3.95 (Simulation time: 00 hr 26 min 14 sec)
Heartbeat CPU 0 instructions: 520000001 cycles: 131658092 heartbeat IPC: 3.949 cumulative IPC: 3.95 (Simulation time: 00 hr 26 min 32 sec)
Heartbeat CPU 0 instructions: 530000001 cycles: 134179487 heartbeat IPC: 3.966 cumulative IPC: 3.95 (Simulation time: 00 hr 26 min 50 sec)
Heartbeat CPU 0 instructions: 540000003 cycles: 136699427 heartbeat IPC: 3.968 cumulative IPC: 3.95 (Simulation time: 00 hr 27 min 09 sec)
Heartbeat CPU 0 instructions: 550000003 cycles: 139219465 heartbeat IPC: 3.968 cumulative IPC: 3.951 (Simulation time: 00 hr 27 min 28 sec)
Heartbeat CPU 0 instructions: 560000003 cycles: 141739771 heartbeat IPC: 3.968 cumulative IPC: 3.951 (Simulation time: 00 hr 27 min 46 sec)
Heartbeat CPU 0 instructions: 570000003 cycles: 144259799 heartbeat IPC: 3.968 cumulative IPC: 3.951 (Simulation time: 00 hr 28 min 05 sec)
Heartbeat CPU 0 instructions: 580000003 cycles: 146779847 heartbeat IPC: 3.968 cumulative IPC: 3.951 (Simulation time: 00 hr 28 min 23 sec)
Heartbeat CPU 0 instructions: 590000001 cycles: 149299245 heartbeat IPC: 3.969 cumulative IPC: 3.952 (Simulation time: 00 hr 28 min 42 sec)
Heartbeat CPU 0 instructions: 600000001 cycles: 151818271 heartbeat IPC: 3.97 cumulative IPC: 3.952 (Simulation time: 00 hr 29 min 00 sec)
Heartbeat CPU 0 instructions: 610000001 cycles: 154337286 heartbeat IPC: 3.97 cumulative IPC: 3.952 (Simulation time: 00 hr 29 min 19 sec)
Heartbeat CPU 0 instructions: 620000001 cycles: 156856291 heartbeat IPC: 3.97 cumulative IPC: 3.953 (Simulation time: 00 hr 29 min 38 sec)
Heartbeat CPU 0 instructions: 630000001 cycles: 159375289 heartbeat IPC: 3.97 cumulative IPC: 3.953 (Simulation time: 00 hr 29 min 56 sec)
Heartbeat CPU 0 instructions: 640000002 cycles: 161896153 heartbeat IPC: 3.967 cumulative IPC: 3.953 (Simulation time: 00 hr 30 min 15 sec)
Heartbeat CPU 0 instructions: 650000003 cycles: 164427887 heartbeat IPC: 3.95 cumulative IPC: 3.953 (Simulation time: 00 hr 30 min 33 sec)
Heartbeat CPU 0 instructions: 660000003 cycles: 166961000 heartbeat IPC: 3.948 cumulative IPC: 3.953 (Simulation time: 00 hr 30 min 51 sec)
Heartbeat CPU 0 instructions: 670000003 cycles: 169488668 heartbeat IPC: 3.956 cumulative IPC: 3.953 (Simulation time: 00 hr 31 min 09 sec)
Heartbeat CPU 0 instructions: 680000003 cycles: 172022846 heartbeat IPC: 3.946 cumulative IPC: 3.953 (Simulation time: 00 hr 31 min 27 sec)
Heartbeat CPU 0 instructions: 690000001 cycles: 174557459 heartbeat IPC: 3.945 cumulative IPC: 3.953 (Simulation time: 00 hr 31 min 45 sec)
Heartbeat CPU 0 instructions: 700000003 cycles: 177092079 heartbeat IPC: 3.945 cumulative IPC: 3.953 (Simulation time: 00 hr 32 min 03 sec)
Heartbeat CPU 0 instructions: 710000000 cycles: 179626594 heartbeat IPC: 3.946 cumulative IPC: 3.953 (Simulation time: 00 hr 32 min 21 sec)
Heartbeat CPU 0 instructions: 720000001 cycles: 182159279 heartbeat IPC: 3.948 cumulative IPC: 3.953 (Simulation time: 00 hr 32 min 39 sec)
Heartbeat CPU 0 instructions: 730000003 cycles: 184666489 heartbeat IPC: 3.988 cumulative IPC: 3.953 (Simulation time: 00 hr 32 min 59 sec)
Heartbeat CPU 0 instructions: 740000000 cycles: 187196638 heartbeat IPC: 3.952 cumulative IPC: 3.953 (Simulation time: 00 hr 33 min 17 sec)
Heartbeat CPU 0 instructions: 750000001 cycles: 189731788 heartbeat IPC: 3.945 cumulative IPC: 3.953 (Simulation time: 00 hr 33 min 35 sec)
Heartbeat CPU 0 instructions: 760000003 cycles: 192266666 heartbeat IPC: 3.945 cumulative IPC: 3.953 (Simulation time: 00 hr 33 min 53 sec)
Heartbeat CPU 0 instructions: 770000000 cycles: 194801843 heartbeat IPC: 3.944 cumulative IPC: 3.953 (Simulation time: 00 hr 34 min 11 sec)
Heartbeat CPU 0 instructions: 780000001 cycles: 197335901 heartbeat IPC: 3.946 cumulative IPC: 3.953 (Simulation time: 00 hr 34 min 29 sec)
Heartbeat CPU 0 instructions: 790000000 cycles: 199869766 heartbeat IPC: 3.947 cumulative IPC: 3.953 (Simulation time: 00 hr 34 min 47 sec)
Heartbeat CPU 0 instructions: 800000003 cycles: 202400188 heartbeat IPC: 3.952 cumulative IPC: 3.953 (Simulation time: 00 hr 35 min 05 sec)
Heartbeat CPU 0 instructions: 810000001 cycles: 204926811 heartbeat IPC: 3.958 cumulative IPC: 3.953 (Simulation time: 00 hr 35 min 23 sec)
Heartbeat CPU 0 instructions: 820000000 cycles: 207452285 heartbeat IPC: 3.96 cumulative IPC: 3.953 (Simulation time: 00 hr 35 min 41 sec)
Heartbeat CPU 0 instructions: 830000001 cycles: 209982485 heartbeat IPC: 3.952 cumulative IPC: 3.953 (Simulation time: 00 hr 35 min 59 sec)
Heartbeat CPU 0 instructions: 840000000 cycles: 212512669 heartbeat IPC: 3.952 cumulative IPC: 3.953 (Simulation time: 00 hr 36 min 18 sec)
Heartbeat CPU 0 instructions: 850000001 cycles: 215042875 heartbeat IPC: 3.952 cumulative IPC: 3.953 (Simulation time: 00 hr 36 min 36 sec)
Heartbeat CPU 0 instructions: 860000000 cycles: 217573070 heartbeat IPC: 3.952 cumulative IPC: 3.953 (Simulation time: 00 hr 36 min 54 sec)
Heartbeat CPU 0 instructions: 870000001 cycles: 220103280 heartbeat IPC: 3.952 cumulative IPC: 3.953 (Simulation time: 00 hr 37 min 21 sec)
Heartbeat CPU 0 instructions: 880000002 cycles: 222633494 heartbeat IPC: 3.952 cumulative IPC: 3.953 (Simulation time: 00 hr 37 min 50 sec)
Heartbeat CPU 0 instructions: 890000001 cycles: 225163653 heartbeat IPC: 3.952 cumulative IPC: 3.953 (Simulation time: 00 hr 38 min 08 sec)
Heartbeat CPU 0 instructions: 900000001 cycles: 227693801 heartbeat IPC: 3.952 cumulative IPC: 3.953 (Simulation time: 00 hr 38 min 26 sec)
Heartbeat CPU 0 instructions: 910000003 cycles: 230223951 heartbeat IPC: 3.952 cumulative IPC: 3.953 (Simulation time: 00 hr 38 min 44 sec)
Heartbeat CPU 0 instructions: 920000002 cycles: 232754115 heartbeat IPC: 3.952 cumulative IPC: 3.953 (Simulation time: 00 hr 39 min 02 sec)
Heartbeat CPU 0 instructions: 930000001 cycles: 235276984 heartbeat IPC: 3.964 cumulative IPC: 3.953 (Simulation time: 00 hr 39 min 20 sec)
Heartbeat CPU 0 instructions: 940000000 cycles: 237807429 heartbeat IPC: 3.952 cumulative IPC: 3.953 (Simulation time: 00 hr 39 min 45 sec)
Heartbeat CPU 0 instructions: 950000000 cycles: 240336679 heartbeat IPC: 3.954 cumulative IPC: 3.953 (Simulation time: 00 hr 40 min 19 sec)
Heartbeat CPU 0 instructions: 960000000 cycles: 242867349 heartbeat IPC: 3.952 cumulative IPC: 3.953 (Simulation time: 00 hr 40 min 52 sec)
Heartbeat CPU 0 instructions: 970000001 cycles: 245401700 heartbeat IPC: 3.946 cumulative IPC: 3.953 (Simulation time: 00 hr 41 min 26 sec)
Heartbeat CPU 0 instructions: 980000002 cycles: 247936525 heartbeat IPC: 3.945 cumulative IPC: 3.953 (Simulation time: 00 hr 41 min 59 sec)
Heartbeat CPU 0 instructions: 990000001 cycles: 250471648 heartbeat IPC: 3.945 cumulative IPC: 3.953 (Simulation time: 00 hr 42 min 33 sec)
Heartbeat CPU 0 instructions: 1000000002 cycles: 253006634 heartbeat IPC: 3.945 cumulative IPC: 3.952 (Simulation time: 00 hr 43 min 06 sec)
Warmup finished CPU 0 instructions: 1000000002 cycles: 253006635 cumulative IPC: 3.952 (Simulation time: 00 hr 43 min 06 sec)
Warmup complete CPU 0 instructions: 1000000002 cycles: 253006635 cumulative IPC: 3.952 (Simulation time: 00 hr 43 min 06 sec)
Heartbeat CPU 0 instructions: 1010000000 cycles: 256630794 heartbeat IPC: 2.759 cumulative IPC: 2.759 (Simulation time: 00 hr 43 min 55 sec)
Heartbeat CPU 0 instructions: 1020000001 cycles: 261364431 heartbeat IPC: 2.113 cumulative IPC: 2.393 (Simulation time: 00 hr 44 min 54 sec)
Heartbeat CPU 0 instructions: 1030000002 cycles: 264080244 heartbeat IPC: 3.682 cumulative IPC: 2.709 (Simulation time: 00 hr 45 min 33 sec)
Heartbeat CPU 0 instructions: 1040000003 cycles: 266794968 heartbeat IPC: 3.684 cumulative IPC: 2.901 (Simulation time: 00 hr 46 min 12 sec)
Heartbeat CPU 0 instructions: 1050000000 cycles: 269509057 heartbeat IPC: 3.684 cumulative IPC: 3.03 (Simulation time: 00 hr 46 min 51 sec)
Heartbeat CPU 0 instructions: 1060000003 cycles: 272334286 heartbeat IPC: 3.54 cumulative IPC: 3.104 (Simulation time: 00 hr 47 min 22 sec)
Heartbeat CPU 0 instructions: 1070000002 cycles: 275134992 heartbeat IPC: 3.571 cumulative IPC: 3.163 (Simulation time: 00 hr 47 min 44 sec)
Heartbeat CPU 0 instructions: 1080000001 cycles: 277935548 heartbeat IPC: 3.571 cumulative IPC: 3.209 (Simulation time: 00 hr 48 min 05 sec)
Heartbeat CPU 0 instructions: 1090000000 cycles: 280743490 heartbeat IPC: 3.561 cumulative IPC: 3.245 (Simulation time: 00 hr 48 min 27 sec)
Heartbeat CPU 0 instructions: 1100000001 cycles: 283538716 heartbeat IPC: 3.578 cumulative IPC: 3.275 (Simulation time: 00 hr 48 min 49 sec)
Heartbeat CPU 0 instructions: 1110000001 cycles: 286323180 heartbeat IPC: 3.591 cumulative IPC: 3.302 (Simulation time: 00 hr 49 min 17 sec)
Heartbeat CPU 0 instructions: 1120000003 cycles: 289112516 heartbeat IPC: 3.585 cumulative IPC: 3.324 (Simulation time: 00 hr 49 min 39 sec)
Heartbeat CPU 0 instructions: 1130000002 cycles: 291899019 heartbeat IPC: 3.589 cumulative IPC: 3.343 (Simulation time: 00 hr 50 min 01 sec)
Heartbeat CPU 0 instructions: 1140000003 cycles: 294672034 heartbeat IPC: 3.606 cumulative IPC: 3.36 (Simulation time: 00 hr 50 min 22 sec)
Heartbeat CPU 0 instructions: 1150000000 cycles: 297465378 heartbeat IPC: 3.58 cumulative IPC: 3.374 (Simulation time: 00 hr 50 min 44 sec)
Heartbeat CPU 0 instructions: 1160000000 cycles: 300243393 heartbeat IPC: 3.6 cumulative IPC: 3.387 (Simulation time: 00 hr 51 min 05 sec)
Heartbeat CPU 0 instructions: 1170000001 cycles: 303037195 heartbeat IPC: 3.579 cumulative IPC: 3.398 (Simulation time: 00 hr 51 min 27 sec)
Heartbeat CPU 0 instructions: 1180000000 cycles: 305814786 heartbeat IPC: 3.6 cumulative IPC: 3.409 (Simulation time: 00 hr 51 min 49 sec)
Heartbeat CPU 0 instructions: 1190000000 cycles: 308603547 heartbeat IPC: 3.586 cumulative IPC: 3.417 (Simulation time: 00 hr 52 min 10 sec)
Heartbeat CPU 0 instructions: 1200000004 cycles: 311379616 heartbeat IPC: 3.602 cumulative IPC: 3.426 (Simulation time: 00 hr 52 min 32 sec)
Heartbeat CPU 0 instructions: 1210000001 cycles: 314147420 heartbeat IPC: 3.613 cumulative IPC: 3.435 (Simulation time: 00 hr 52 min 53 sec)
Heartbeat CPU 0 instructions: 1220000000 cycles: 316939623 heartbeat IPC: 3.581 cumulative IPC: 3.441 (Simulation time: 00 hr 53 min 15 sec)
Heartbeat CPU 0 instructions: 1230000001 cycles: 319715922 heartbeat IPC: 3.602 cumulative IPC: 3.448 (Simulation time: 00 hr 53 min 36 sec)
Heartbeat CPU 0 instructions: 1240000004 cycles: 322507338 heartbeat IPC: 3.582 cumulative IPC: 3.453 (Simulation time: 00 hr 53 min 58 sec)
Heartbeat CPU 0 instructions: 1250000004 cycles: 325287085 heartbeat IPC: 3.597 cumulative IPC: 3.459 (Simulation time: 00 hr 54 min 20 sec)
Heartbeat CPU 0 instructions: 1260000001 cycles: 328067301 heartbeat IPC: 3.597 cumulative IPC: 3.464 (Simulation time: 00 hr 54 min 44 sec)
Heartbeat CPU 0 instructions: 1270000002 cycles: 330854512 heartbeat IPC: 3.588 cumulative IPC: 3.468 (Simulation time: 00 hr 55 min 15 sec)
Heartbeat CPU 0 instructions: 1280000000 cycles: 333636080 heartbeat IPC: 3.595 cumulative IPC: 3.473 (Simulation time: 00 hr 55 min 37 sec)
Heartbeat CPU 0 instructions: 1290000002 cycles: 336456374 heartbeat IPC: 3.546 cumulative IPC: 3.475 (Simulation time: 00 hr 55 min 59 sec)
Heartbeat CPU 0 instructions: 1300000004 cycles: 339255806 heartbeat IPC: 3.572 cumulative IPC: 3.478 (Simulation time: 00 hr 56 min 21 sec)
Heartbeat CPU 0 instructions: 1310000004 cycles: 342037298 heartbeat IPC: 3.595 cumulative IPC: 3.482 (Simulation time: 00 hr 56 min 42 sec)
Heartbeat CPU 0 instructions: 1320000000 cycles: 344866763 heartbeat IPC: 3.534 cumulative IPC: 3.484 (Simulation time: 00 hr 57 min 04 sec)
Heartbeat CPU 0 instructions: 1330000000 cycles: 347582337 heartbeat IPC: 3.682 cumulative IPC: 3.489 (Simulation time: 00 hr 57 min 25 sec)
Heartbeat CPU 0 instructions: 1340000004 cycles: 350294430 heartbeat IPC: 3.687 cumulative IPC: 3.495 (Simulation time: 00 hr 57 min 46 sec)
Heartbeat CPU 0 instructions: 1350000000 cycles: 353008286 heartbeat IPC: 3.685 cumulative IPC: 3.5 (Simulation time: 00 hr 58 min 07 sec)
Heartbeat CPU 0 instructions: 1360000004 cycles: 357006529 heartbeat IPC: 2.501 cumulative IPC: 3.462 (Simulation time: 00 hr 58 min 55 sec)
Heartbeat CPU 0 instructions: 1370000004 cycles: 361258042 heartbeat IPC: 2.352 cumulative IPC: 3.418 (Simulation time: 00 hr 59 min 45 sec)
Heartbeat CPU 0 instructions: 1380000000 cycles: 363994227 heartbeat IPC: 3.655 cumulative IPC: 3.424 (Simulation time: 01 hr 00 min 06 sec)
Heartbeat CPU 0 instructions: 1390000002 cycles: 366730436 heartbeat IPC: 3.655 cumulative IPC: 3.429 (Simulation time: 01 hr 00 min 27 sec)
Heartbeat CPU 0 instructions: 1400000004 cycles: 369467258 heartbeat IPC: 3.654 cumulative IPC: 3.435 (Simulation time: 01 hr 00 min 51 sec)
Heartbeat CPU 0 instructions: 1410000004 cycles: 372228090 heartbeat IPC: 3.622 cumulative IPC: 3.439 (Simulation time: 01 hr 01 min 12 sec)
Heartbeat CPU 0 instructions: 1420000002 cycles: 374961194 heartbeat IPC: 3.659 cumulative IPC: 3.444 (Simulation time: 01 hr 01 min 34 sec)
Heartbeat CPU 0 instructions: 1430000000 cycles: 377694480 heartbeat IPC: 3.659 cumulative IPC: 3.449 (Simulation time: 01 hr 01 min 55 sec)
Heartbeat CPU 0 instructions: 1440000000 cycles: 380426873 heartbeat IPC: 3.66 cumulative IPC: 3.453 (Simulation time: 01 hr 02 min 16 sec)
Heartbeat CPU 0 instructions: 1450000002 cycles: 383210990 heartbeat IPC: 3.592 cumulative IPC: 3.456 (Simulation time: 01 hr 02 min 38 sec)
Heartbeat CPU 0 instructions: 1460000003 cycles: 385958457 heartbeat IPC: 3.64 cumulative IPC: 3.46 (Simulation time: 01 hr 03 min 00 sec)
Heartbeat CPU 0 instructions: 1470000000 cycles: 388751255 heartbeat IPC: 3.581 cumulative IPC: 3.462 (Simulation time: 01 hr 03 min 22 sec)
Heartbeat CPU 0 instructions: 1480000000 cycles: 391592092 heartbeat IPC: 3.52 cumulative IPC: 3.464 (Simulation time: 01 hr 03 min 45 sec)
Heartbeat CPU 0 instructions: 1490000000 cycles: 394360585 heartbeat IPC: 3.612 cumulative IPC: 3.466 (Simulation time: 01 hr 04 min 06 sec)
Heartbeat CPU 0 instructions: 1500000002 cycles: 397134664 heartbeat IPC: 3.605 cumulative IPC: 3.469 (Simulation time: 01 hr 04 min 29 sec)
Simulation finished CPU 0 instructions: 500000000 cycles: 144128030 cumulative IPC: 3.469 (Simulation time: 01 hr 04 min 29 sec)
Simulation complete CPU 0 instructions: 500000000 cycles: 144128030 cumulative IPC: 3.469 (Simulation time: 01 hr 04 min 29 sec)

ChampSim completed all CPUs

=== Simulation ===
CPU 0 runs traces/603.bwaves_s-1080B.champsimtrace.xz
Region of Interest Statistics

CPU 0 cumulative IPC: 3.469 instructions: 500000000 cycles: 144128030
CPU 0 Branch Prediction Accuracy: 99.1% MPKI: 1.309 Average ROB Occupancy at Mispredict: 131.9
Branch type MPKI
BRANCH_DIRECT_JUMP: 0.186
BRANCH_INDIRECT: 0
BRANCH_CONDITIONAL: 0.992
BRANCH_DIRECT_CALL: 0
BRANCH_INDIRECT_CALL: 0
BRANCH_RETURN: 0.131

LLC TOTAL        ACCESS:     328048 HIT:     155999 MISS:     172049
LLC LOAD         ACCESS:      15782 HIT:         14 MISS:      15768
LLC RFO          ACCESS:     156251 HIT:         13 MISS:     156238
LLC PREFETCH     ACCESS:          0 HIT:          0 MISS:          0
LLC WRITE        ACCESS:     155994 HIT:     155969 MISS:         25
LLC TRANSLATION  ACCESS:         21 HIT:          3 MISS:         18
LLC PREFETCH REQUESTED:          0 ISSUED:          0 USEFUL:          0 USELESS:          0
LLC AVERAGE MISS LATENCY: 408.4 cycles
cpu0_DTLB TOTAL        ACCESS:   81951148 HIT:   81927192 MISS:      23956
cpu0_DTLB LOAD         ACCESS:   81951148 HIT:   81927192 MISS:      23956
cpu0_DTLB RFO          ACCESS:          0 HIT:          0 MISS:          0
cpu0_DTLB PREFETCH     ACCESS:          0 HIT:          0 MISS:          0
cpu0_DTLB WRITE        ACCESS:          0 HIT:          0 MISS:          0
cpu0_DTLB TRANSLATION  ACCESS:          0 HIT:          0 MISS:          0
cpu0_DTLB PREFETCH REQUESTED:          0 ISSUED:          0 USEFUL:          0 USELESS:          0
cpu0_DTLB AVERAGE MISS LATENCY: 19.7 cycles
cpu0_ITLB TOTAL        ACCESS:    1900093 HIT:    1900093 MISS:          0
cpu0_ITLB LOAD         ACCESS:    1900093 HIT:    1900093 MISS:          0
cpu0_ITLB RFO          ACCESS:          0 HIT:          0 MISS:          0
cpu0_ITLB PREFETCH     ACCESS:          0 HIT:          0 MISS:          0
cpu0_ITLB WRITE        ACCESS:          0 HIT:          0 MISS:          0
cpu0_ITLB TRANSLATION  ACCESS:          0 HIT:          0 MISS:          0
cpu0_ITLB PREFETCH REQUESTED:          0 ISSUED:          0 USEFUL:          0 USELESS:          0
cpu0_ITLB AVERAGE MISS LATENCY: -nan cycles
cpu0_L1D TOTAL        ACCESS:  125966162 HIT:  124773776 MISS:    1192386
cpu0_L1D LOAD         ACCESS:  104850280 HIT:  104806831 MISS:      43449
cpu0_L1D RFO          ACCESS:          0 HIT:          0 MISS:          0
cpu0_L1D PREFETCH     ACCESS:          0 HIT:          0 MISS:          0
cpu0_L1D WRITE        ACCESS:   21113186 HIT:   19964514 MISS:    1148672
cpu0_L1D TRANSLATION  ACCESS:       2696 HIT:       2431 MISS:        265
cpu0_L1D PREFETCH REQUESTED:          0 ISSUED:          0 USEFUL:          0 USELESS:          0
cpu0_L1D AVERAGE MISS LATENCY: 59.15 cycles
cpu0_L1I TOTAL        ACCESS:    2200590 HIT:    2200590 MISS:          0
cpu0_L1I LOAD         ACCESS:    2200590 HIT:    2200590 MISS:          0
cpu0_L1I RFO          ACCESS:          0 HIT:          0 MISS:          0
cpu0_L1I PREFETCH     ACCESS:          0 HIT:          0 MISS:          0
cpu0_L1I WRITE        ACCESS:          0 HIT:          0 MISS:          0
cpu0_L1I TRANSLATION  ACCESS:          0 HIT:          0 MISS:          0
cpu0_L1I PREFETCH REQUESTED:          0 ISSUED:          0 USEFUL:          0 USELESS:          0
cpu0_L1I AVERAGE MISS LATENCY: -nan cycles
cpu0_L2C TOTAL        ACCESS:     331495 HIT:     159422 MISS:     172073
cpu0_L2C LOAD         ACCESS:      17007 HIT:       1225 MISS:      15782
cpu0_L2C RFO          ACCESS:     157380 HIT:       1129 MISS:     156251
cpu0_L2C PREFETCH     ACCESS:          0 HIT:          0 MISS:          0
cpu0_L2C WRITE        ACCESS:     156843 HIT:     156824 MISS:         19
cpu0_L2C TRANSLATION  ACCESS:        265 HIT:        244 MISS:         21
cpu0_L2C PREFETCH REQUESTED:          0 ISSUED:          0 USEFUL:          0 USELESS:          0
cpu0_L2C AVERAGE MISS LATENCY: 429.3 cycles
cpu0_STLB TOTAL        ACCESS:       2816 HIT:        125 MISS:       2691
cpu0_STLB LOAD         ACCESS:       2816 HIT:        125 MISS:       2691
cpu0_STLB RFO          ACCESS:          0 HIT:          0 MISS:          0
cpu0_STLB PREFETCH     ACCESS:          0 HIT:          0 MISS:          0
cpu0_STLB WRITE        ACCESS:          0 HIT:          0 MISS:          0
cpu0_STLB TRANSLATION  ACCESS:          0 HIT:          0 MISS:          0
cpu0_STLB PREFETCH REQUESTED:          0 ISSUED:          0 USEFUL:          0 USELESS:          0
cpu0_STLB AVERAGE MISS LATENCY: 210.1 cycles

DRAM Statistics

Channel 0 RQ ROW_BUFFER_HIT:      59688
  ROW_BUFFER_MISS:     112336
 AVG DBUS CONGESTED CYCLE: 3.933
WQ ROW_BUFFER_HIT: Channel 0 
  ROW_BUFFER_MISS:      53402
  FULL:     102632

NOT_BRANCH: 0

BRANCH_DIRECT_JUMP: 16403078

BRANCH_INDIRECT: 1555774

BRANCH_CONDITIONAL: 194400119

BRANCH_DIRECT_CALL: 2643820

BRANCH_INDIRECT_CALL: 0

BRANCH_RETURN: 2643820

BRANCH_OTHER: 0
