WARNING: physical memory size is smaller than virtual memory size.

*** ChampSim Multicore Out-of-Order Simulator ***
Warmup Instructions: 1000000000
Simulation Instructions: 500000000
Number of CPUs: 1
Page size: 4096

Off-chip DRAM Size: 4 GiB Channels: 1 Width: 64-bit Data Race: 3200 MT/s
Heartbeat CPU 0 instructions: 10000002 cycles: 2521280 heartbeat IPC: 3.966 cumulative IPC: 3.966 (Simulation time: 00 hr 00 min 28 sec)
Heartbeat CPU 0 instructions: 20000002 cycles: 5034803 heartbeat IPC: 3.978 cumulative IPC: 3.972 (Simulation time: 00 hr 01 min 00 sec)
Heartbeat CPU 0 instructions: 30000000 cycles: 7565370 heartbeat IPC: 3.952 cumulative IPC: 3.965 (Simulation time: 00 hr 01 min 32 sec)
Heartbeat CPU 0 instructions: 40000001 cycles: 10095963 heartbeat IPC: 3.952 cumulative IPC: 3.962 (Simulation time: 00 hr 02 min 06 sec)
Heartbeat CPU 0 instructions: 50000000 cycles: 12626169 heartbeat IPC: 3.952 cumulative IPC: 3.96 (Simulation time: 00 hr 02 min 40 sec)
Heartbeat CPU 0 instructions: 60000000 cycles: 15158511 heartbeat IPC: 3.949 cumulative IPC: 3.958 (Simulation time: 00 hr 03 min 13 sec)
Heartbeat CPU 0 instructions: 70000001 cycles: 17691098 heartbeat IPC: 3.949 cumulative IPC: 3.957 (Simulation time: 00 hr 03 min 47 sec)
Heartbeat CPU 0 instructions: 80000001 cycles: 20223692 heartbeat IPC: 3.949 cumulative IPC: 3.956 (Simulation time: 00 hr 04 min 21 sec)
Heartbeat CPU 0 instructions: 90000003 cycles: 22755971 heartbeat IPC: 3.949 cumulative IPC: 3.955 (Simulation time: 00 hr 04 min 54 sec)
Heartbeat CPU 0 instructions: 100000003 cycles: 25289482 heartbeat IPC: 3.947 cumulative IPC: 3.954 (Simulation time: 00 hr 05 min 28 sec)
Heartbeat CPU 0 instructions: 110000003 cycles: 27823771 heartbeat IPC: 3.946 cumulative IPC: 3.953 (Simulation time: 00 hr 06 min 01 sec)
Heartbeat CPU 0 instructions: 120000003 cycles: 30358647 heartbeat IPC: 3.945 cumulative IPC: 3.953 (Simulation time: 00 hr 06 min 35 sec)
Heartbeat CPU 0 instructions: 130000002 cycles: 32893842 heartbeat IPC: 3.944 cumulative IPC: 3.952 (Simulation time: 00 hr 07 min 08 sec)
Heartbeat CPU 0 instructions: 140000000 cycles: 35428753 heartbeat IPC: 3.945 cumulative IPC: 3.952 (Simulation time: 00 hr 07 min 42 sec)
Heartbeat CPU 0 instructions: 150000001 cycles: 37962325 heartbeat IPC: 3.947 cumulative IPC: 3.951 (Simulation time: 00 hr 08 min 16 sec)
Heartbeat CPU 0 instructions: 160000000 cycles: 40496297 heartbeat IPC: 3.946 cumulative IPC: 3.951 (Simulation time: 00 hr 08 min 49 sec)
Heartbeat CPU 0 instructions: 170000003 cycles: 43029134 heartbeat IPC: 3.948 cumulative IPC: 3.951 (Simulation time: 00 hr 09 min 23 sec)
Heartbeat CPU 0 instructions: 180000003 cycles: 45563039 heartbeat IPC: 3.946 cumulative IPC: 3.951 (Simulation time: 00 hr 09 min 56 sec)
Heartbeat CPU 0 instructions: 190000002 cycles: 48096183 heartbeat IPC: 3.948 cumulative IPC: 3.95 (Simulation time: 00 hr 10 min 30 sec)
Heartbeat CPU 0 instructions: 200000001 cycles: 50629168 heartbeat IPC: 3.948 cumulative IPC: 3.95 (Simulation time: 00 hr 11 min 03 sec)
Heartbeat CPU 0 instructions: 210000002 cycles: 53162974 heartbeat IPC: 3.947 cumulative IPC: 3.95 (Simulation time: 00 hr 11 min 30 sec)
Heartbeat CPU 0 instructions: 220000002 cycles: 55695801 heartbeat IPC: 3.948 cumulative IPC: 3.95 (Simulation time: 00 hr 11 min 48 sec)
Heartbeat CPU 0 instructions: 230000000 cycles: 58229478 heartbeat IPC: 3.947 cumulative IPC: 3.95 (Simulation time: 00 hr 12 min 07 sec)
Heartbeat CPU 0 instructions: 240000003 cycles: 60762724 heartbeat IPC: 3.948 cumulative IPC: 3.95 (Simulation time: 00 hr 12 min 29 sec)
Heartbeat CPU 0 instructions: 250000002 cycles: 63295892 heartbeat IPC: 3.948 cumulative IPC: 3.95 (Simulation time: 00 hr 12 min 58 sec)
Heartbeat CPU 0 instructions: 260000003 cycles: 65829427 heartbeat IPC: 3.947 cumulative IPC: 3.95 (Simulation time: 00 hr 13 min 19 sec)
Heartbeat CPU 0 instructions: 270000002 cycles: 68362482 heartbeat IPC: 3.948 cumulative IPC: 3.95 (Simulation time: 00 hr 13 min 44 sec)
Heartbeat CPU 0 instructions: 280000001 cycles: 70895864 heartbeat IPC: 3.947 cumulative IPC: 3.949 (Simulation time: 00 hr 14 min 01 sec)
Heartbeat CPU 0 instructions: 290000001 cycles: 73429373 heartbeat IPC: 3.947 cumulative IPC: 3.949 (Simulation time: 00 hr 14 min 20 sec)
Heartbeat CPU 0 instructions: 300000000 cycles: 75962515 heartbeat IPC: 3.948 cumulative IPC: 3.949 (Simulation time: 00 hr 14 min 38 sec)
Heartbeat CPU 0 instructions: 310000000 cycles: 78495950 heartbeat IPC: 3.947 cumulative IPC: 3.949 (Simulation time: 00 hr 14 min 56 sec)
Heartbeat CPU 0 instructions: 320000002 cycles: 81029151 heartbeat IPC: 3.948 cumulative IPC: 3.949 (Simulation time: 00 hr 15 min 29 sec)
Heartbeat CPU 0 instructions: 330000001 cycles: 83562846 heartbeat IPC: 3.947 cumulative IPC: 3.949 (Simulation time: 00 hr 16 min 02 sec)
Heartbeat CPU 0 instructions: 340000001 cycles: 86096676 heartbeat IPC: 3.947 cumulative IPC: 3.949 (Simulation time: 00 hr 16 min 35 sec)
Heartbeat CPU 0 instructions: 350000000 cycles: 88631522 heartbeat IPC: 3.945 cumulative IPC: 3.949 (Simulation time: 00 hr 17 min 07 sec)
Heartbeat CPU 0 instructions: 360000001 cycles: 91166870 heartbeat IPC: 3.944 cumulative IPC: 3.949 (Simulation time: 00 hr 17 min 39 sec)
Heartbeat CPU 0 instructions: 370000002 cycles: 93701653 heartbeat IPC: 3.945 cumulative IPC: 3.949 (Simulation time: 00 hr 17 min 57 sec)
Heartbeat CPU 0 instructions: 380000000 cycles: 96235921 heartbeat IPC: 3.946 cumulative IPC: 3.949 (Simulation time: 00 hr 18 min 14 sec)
Heartbeat CPU 0 instructions: 390000000 cycles: 98768992 heartbeat IPC: 3.948 cumulative IPC: 3.949 (Simulation time: 00 hr 18 min 32 sec)
Heartbeat CPU 0 instructions: 400000003 cycles: 101301692 heartbeat IPC: 3.948 cumulative IPC: 3.949 (Simulation time: 00 hr 18 min 50 sec)
Heartbeat CPU 0 instructions: 410000002 cycles: 103834065 heartbeat IPC: 3.949 cumulative IPC: 3.949 (Simulation time: 00 hr 19 min 07 sec)
Heartbeat CPU 0 instructions: 420000004 cycles: 106366635 heartbeat IPC: 3.949 cumulative IPC: 3.949 (Simulation time: 00 hr 19 min 25 sec)
Heartbeat CPU 0 instructions: 430000001 cycles: 108898606 heartbeat IPC: 3.949 cumulative IPC: 3.949 (Simulation time: 00 hr 19 min 43 sec)
Heartbeat CPU 0 instructions: 440000003 cycles: 111428974 heartbeat IPC: 3.952 cumulative IPC: 3.949 (Simulation time: 00 hr 20 min 01 sec)
Heartbeat CPU 0 instructions: 450000004 cycles: 113959430 heartbeat IPC: 3.952 cumulative IPC: 3.949 (Simulation time: 00 hr 20 min 18 sec)
Heartbeat CPU 0 instructions: 460000001 cycles: 116489919 heartbeat IPC: 3.952 cumulative IPC: 3.949 (Simulation time: 00 hr 20 min 36 sec)
Heartbeat CPU 0 instructions: 470000003 cycles: 119000269 heartbeat IPC: 3.984 cumulative IPC: 3.95 (Simulation time: 00 hr 20 min 55 sec)
Heartbeat CPU 0 instructions: 480000002 cycles: 121526230 heartbeat IPC: 3.959 cumulative IPC: 3.95 (Simulation time: 00 hr 21 min 14 sec)
Heartbeat CPU 0 instructions: 490000001 cycles: 124060389 heartbeat IPC: 3.946 cumulative IPC: 3.95 (Simulation time: 00 hr 21 min 32 sec)
Heartbeat CPU 0 instructions: 500000003 cycles: 126593602 heartbeat IPC: 3.948 cumulative IPC: 3.95 (Simulation time: 00 hr 21 min 50 sec)
Heartbeat CPU 0 instructions: 510000003 cycles: 129125456 heartbeat IPC: 3.95 cumulative IPC: 3.95 (Simulation time: 00 hr 22 min 08 sec)
Heartbeat CPU 0 instructions: 520000001 cycles: 131657568 heartbeat IPC: 3.949 cumulative IPC: 3.95 (Simulation time: 00 hr 22 min 25 sec)
Heartbeat CPU 0 instructions: 530000001 cycles: 134178963 heartbeat IPC: 3.966 cumulative IPC: 3.95 (Simulation time: 00 hr 22 min 44 sec)
Heartbeat CPU 0 instructions: 540000003 cycles: 136698898 heartbeat IPC: 3.968 cumulative IPC: 3.95 (Simulation time: 00 hr 23 min 08 sec)
Heartbeat CPU 0 instructions: 550000003 cycles: 139218927 heartbeat IPC: 3.968 cumulative IPC: 3.951 (Simulation time: 00 hr 23 min 41 sec)
Heartbeat CPU 0 instructions: 560000003 cycles: 141739223 heartbeat IPC: 3.968 cumulative IPC: 3.951 (Simulation time: 00 hr 24 min 14 sec)
Heartbeat CPU 0 instructions: 570000003 cycles: 144259226 heartbeat IPC: 3.968 cumulative IPC: 3.951 (Simulation time: 00 hr 24 min 48 sec)
Heartbeat CPU 0 instructions: 580000003 cycles: 146779261 heartbeat IPC: 3.968 cumulative IPC: 3.952 (Simulation time: 00 hr 25 min 21 sec)
Heartbeat CPU 0 instructions: 590000001 cycles: 149298659 heartbeat IPC: 3.969 cumulative IPC: 3.952 (Simulation time: 00 hr 25 min 55 sec)
Heartbeat CPU 0 instructions: 600000001 cycles: 151817674 heartbeat IPC: 3.97 cumulative IPC: 3.952 (Simulation time: 00 hr 26 min 28 sec)
Heartbeat CPU 0 instructions: 610000001 cycles: 154336677 heartbeat IPC: 3.97 cumulative IPC: 3.952 (Simulation time: 00 hr 27 min 02 sec)
Heartbeat CPU 0 instructions: 620000001 cycles: 156855669 heartbeat IPC: 3.97 cumulative IPC: 3.953 (Simulation time: 00 hr 27 min 35 sec)
Heartbeat CPU 0 instructions: 630000001 cycles: 159374669 heartbeat IPC: 3.97 cumulative IPC: 3.953 (Simulation time: 00 hr 28 min 09 sec)
Heartbeat CPU 0 instructions: 640000002 cycles: 161895528 heartbeat IPC: 3.967 cumulative IPC: 3.953 (Simulation time: 00 hr 28 min 42 sec)
Heartbeat CPU 0 instructions: 650000003 cycles: 164427265 heartbeat IPC: 3.95 cumulative IPC: 3.953 (Simulation time: 00 hr 29 min 15 sec)
Heartbeat CPU 0 instructions: 660000003 cycles: 166960390 heartbeat IPC: 3.948 cumulative IPC: 3.953 (Simulation time: 00 hr 29 min 47 sec)
Heartbeat CPU 0 instructions: 670000003 cycles: 169488039 heartbeat IPC: 3.956 cumulative IPC: 3.953 (Simulation time: 00 hr 30 min 20 sec)
Heartbeat CPU 0 instructions: 680000003 cycles: 172022213 heartbeat IPC: 3.946 cumulative IPC: 3.953 (Simulation time: 00 hr 30 min 53 sec)
Heartbeat CPU 0 instructions: 690000001 cycles: 174556836 heartbeat IPC: 3.945 cumulative IPC: 3.953 (Simulation time: 00 hr 31 min 26 sec)
Heartbeat CPU 0 instructions: 700000003 cycles: 177091478 heartbeat IPC: 3.945 cumulative IPC: 3.953 (Simulation time: 00 hr 31 min 58 sec)
Heartbeat CPU 0 instructions: 710000000 cycles: 179625999 heartbeat IPC: 3.946 cumulative IPC: 3.953 (Simulation time: 00 hr 32 min 31 sec)
Heartbeat CPU 0 instructions: 720000001 cycles: 182158684 heartbeat IPC: 3.948 cumulative IPC: 3.953 (Simulation time: 00 hr 33 min 03 sec)
Heartbeat CPU 0 instructions: 730000003 cycles: 184665888 heartbeat IPC: 3.989 cumulative IPC: 3.953 (Simulation time: 00 hr 33 min 39 sec)
Heartbeat CPU 0 instructions: 740000000 cycles: 187196040 heartbeat IPC: 3.952 cumulative IPC: 3.953 (Simulation time: 00 hr 34 min 12 sec)
Heartbeat CPU 0 instructions: 750000001 cycles: 189731191 heartbeat IPC: 3.945 cumulative IPC: 3.953 (Simulation time: 00 hr 34 min 45 sec)
Heartbeat CPU 0 instructions: 760000003 cycles: 192266056 heartbeat IPC: 3.945 cumulative IPC: 3.953 (Simulation time: 00 hr 35 min 17 sec)
Heartbeat CPU 0 instructions: 770000000 cycles: 194801229 heartbeat IPC: 3.945 cumulative IPC: 3.953 (Simulation time: 00 hr 35 min 50 sec)
Heartbeat CPU 0 instructions: 780000001 cycles: 197335294 heartbeat IPC: 3.946 cumulative IPC: 3.953 (Simulation time: 00 hr 36 min 23 sec)
Heartbeat CPU 0 instructions: 790000000 cycles: 199869141 heartbeat IPC: 3.947 cumulative IPC: 3.953 (Simulation time: 00 hr 36 min 56 sec)
Heartbeat CPU 0 instructions: 800000003 cycles: 202399561 heartbeat IPC: 3.952 cumulative IPC: 3.953 (Simulation time: 00 hr 37 min 29 sec)
Heartbeat CPU 0 instructions: 810000001 cycles: 204926182 heartbeat IPC: 3.958 cumulative IPC: 3.953 (Simulation time: 00 hr 38 min 02 sec)
Heartbeat CPU 0 instructions: 820000000 cycles: 207451662 heartbeat IPC: 3.96 cumulative IPC: 3.953 (Simulation time: 00 hr 38 min 35 sec)
Heartbeat CPU 0 instructions: 830000001 cycles: 209981863 heartbeat IPC: 3.952 cumulative IPC: 3.953 (Simulation time: 00 hr 39 min 08 sec)
Heartbeat CPU 0 instructions: 840000000 cycles: 212512021 heartbeat IPC: 3.952 cumulative IPC: 3.953 (Simulation time: 00 hr 39 min 41 sec)
Heartbeat CPU 0 instructions: 850000001 cycles: 215042226 heartbeat IPC: 3.952 cumulative IPC: 3.953 (Simulation time: 00 hr 40 min 13 sec)
Heartbeat CPU 0 instructions: 860000000 cycles: 217572436 heartbeat IPC: 3.952 cumulative IPC: 3.953 (Simulation time: 00 hr 40 min 46 sec)
Heartbeat CPU 0 instructions: 870000001 cycles: 220102641 heartbeat IPC: 3.952 cumulative IPC: 3.953 (Simulation time: 00 hr 41 min 19 sec)
Heartbeat CPU 0 instructions: 880000002 cycles: 222632851 heartbeat IPC: 3.952 cumulative IPC: 3.953 (Simulation time: 00 hr 41 min 52 sec)
Heartbeat CPU 0 instructions: 890000001 cycles: 225163007 heartbeat IPC: 3.952 cumulative IPC: 3.953 (Simulation time: 00 hr 42 min 25 sec)
Heartbeat CPU 0 instructions: 900000001 cycles: 227693166 heartbeat IPC: 3.952 cumulative IPC: 3.953 (Simulation time: 00 hr 42 min 58 sec)
Heartbeat CPU 0 instructions: 910000003 cycles: 230223324 heartbeat IPC: 3.952 cumulative IPC: 3.953 (Simulation time: 00 hr 43 min 31 sec)
Heartbeat CPU 0 instructions: 920000002 cycles: 232753481 heartbeat IPC: 3.952 cumulative IPC: 3.953 (Simulation time: 00 hr 44 min 04 sec)
Heartbeat CPU 0 instructions: 930000001 cycles: 235276350 heartbeat IPC: 3.964 cumulative IPC: 3.953 (Simulation time: 00 hr 44 min 37 sec)
Heartbeat CPU 0 instructions: 940000000 cycles: 237806788 heartbeat IPC: 3.952 cumulative IPC: 3.953 (Simulation time: 00 hr 45 min 10 sec)
Heartbeat CPU 0 instructions: 950000000 cycles: 240336019 heartbeat IPC: 3.954 cumulative IPC: 3.953 (Simulation time: 00 hr 45 min 43 sec)
Heartbeat CPU 0 instructions: 960000000 cycles: 242866696 heartbeat IPC: 3.952 cumulative IPC: 3.953 (Simulation time: 00 hr 46 min 15 sec)
Heartbeat CPU 0 instructions: 970000001 cycles: 245401064 heartbeat IPC: 3.946 cumulative IPC: 3.953 (Simulation time: 00 hr 46 min 48 sec)
Heartbeat CPU 0 instructions: 980000002 cycles: 247935875 heartbeat IPC: 3.945 cumulative IPC: 3.953 (Simulation time: 00 hr 47 min 21 sec)
Heartbeat CPU 0 instructions: 990000001 cycles: 250471003 heartbeat IPC: 3.945 cumulative IPC: 3.953 (Simulation time: 00 hr 47 min 53 sec)
Heartbeat CPU 0 instructions: 1000000002 cycles: 253006000 heartbeat IPC: 3.945 cumulative IPC: 3.952 (Simulation time: 00 hr 48 min 26 sec)
Warmup finished CPU 0 instructions: 1000000002 cycles: 253006001 cumulative IPC: 3.952 (Simulation time: 00 hr 48 min 26 sec)
Warmup complete CPU 0 instructions: 1000000002 cycles: 253006001 cumulative IPC: 3.952 (Simulation time: 00 hr 48 min 26 sec)
Heartbeat CPU 0 instructions: 1010000000 cycles: 256637083 heartbeat IPC: 2.754 cumulative IPC: 2.754 (Simulation time: 00 hr 49 min 13 sec)
Heartbeat CPU 0 instructions: 1020000001 cycles: 261367999 heartbeat IPC: 2.114 cumulative IPC: 2.392 (Simulation time: 00 hr 50 min 12 sec)
Heartbeat CPU 0 instructions: 1030000002 cycles: 264092285 heartbeat IPC: 3.671 cumulative IPC: 2.706 (Simulation time: 00 hr 50 min 51 sec)
Heartbeat CPU 0 instructions: 1040000003 cycles: 266814038 heartbeat IPC: 3.674 cumulative IPC: 2.897 (Simulation time: 00 hr 51 min 29 sec)
Heartbeat CPU 0 instructions: 1050000000 cycles: 269537267 heartbeat IPC: 3.672 cumulative IPC: 3.025 (Simulation time: 00 hr 52 min 07 sec)
Heartbeat CPU 0 instructions: 1060000003 cycles: 272366917 heartbeat IPC: 3.534 cumulative IPC: 3.099 (Simulation time: 00 hr 52 min 46 sec)
Heartbeat CPU 0 instructions: 1070000002 cycles: 275174885 heartbeat IPC: 3.561 cumulative IPC: 3.158 (Simulation time: 00 hr 53 min 25 sec)
Heartbeat CPU 0 instructions: 1080000001 cycles: 277987377 heartbeat IPC: 3.556 cumulative IPC: 3.202 (Simulation time: 00 hr 54 min 04 sec)
Heartbeat CPU 0 instructions: 1090000000 cycles: 280809961 heartbeat IPC: 3.543 cumulative IPC: 3.237 (Simulation time: 00 hr 54 min 44 sec)
Heartbeat CPU 0 instructions: 1100000001 cycles: 283613691 heartbeat IPC: 3.567 cumulative IPC: 3.267 (Simulation time: 00 hr 55 min 23 sec)
Heartbeat CPU 0 instructions: 1110000001 cycles: 286403735 heartbeat IPC: 3.584 cumulative IPC: 3.294 (Simulation time: 00 hr 56 min 01 sec)
Heartbeat CPU 0 instructions: 1120000003 cycles: 289198445 heartbeat IPC: 3.578 cumulative IPC: 3.316 (Simulation time: 00 hr 56 min 40 sec)
Heartbeat CPU 0 instructions: 1130000002 cycles: 291995452 heartbeat IPC: 3.575 cumulative IPC: 3.334 (Simulation time: 00 hr 57 min 19 sec)
Heartbeat CPU 0 instructions: 1140000003 cycles: 294772726 heartbeat IPC: 3.601 cumulative IPC: 3.352 (Simulation time: 00 hr 57 min 58 sec)
Heartbeat CPU 0 instructions: 1150000000 cycles: 297573073 heartbeat IPC: 3.571 cumulative IPC: 3.366 (Simulation time: 00 hr 58 min 37 sec)
Heartbeat CPU 0 instructions: 1160000000 cycles: 300363772 heartbeat IPC: 3.583 cumulative IPC: 3.379 (Simulation time: 00 hr 59 min 16 sec)
Heartbeat CPU 0 instructions: 1170000001 cycles: 303166815 heartbeat IPC: 3.568 cumulative IPC: 3.389 (Simulation time: 00 hr 59 min 55 sec)
Heartbeat CPU 0 instructions: 1180000000 cycles: 305950206 heartbeat IPC: 3.593 cumulative IPC: 3.4 (Simulation time: 01 hr 00 min 34 sec)
Heartbeat CPU 0 instructions: 1190000000 cycles: 308751956 heartbeat IPC: 3.569 cumulative IPC: 3.408 (Simulation time: 01 hr 01 min 13 sec)
Heartbeat CPU 0 instructions: 1200000004 cycles: 311544590 heartbeat IPC: 3.581 cumulative IPC: 3.417 (Simulation time: 01 hr 01 min 52 sec)
Heartbeat CPU 0 instructions: 1210000001 cycles: 314319113 heartbeat IPC: 3.604 cumulative IPC: 3.425 (Simulation time: 01 hr 02 min 30 sec)
Heartbeat CPU 0 instructions: 1220000000 cycles: 317113335 heartbeat IPC: 3.579 cumulative IPC: 3.432 (Simulation time: 01 hr 03 min 09 sec)
Heartbeat CPU 0 instructions: 1230000001 cycles: 319900978 heartbeat IPC: 3.587 cumulative IPC: 3.438 (Simulation time: 01 hr 03 min 48 sec)
Heartbeat CPU 0 instructions: 1240000004 cycles: 322700896 heartbeat IPC: 3.572 cumulative IPC: 3.444 (Simulation time: 01 hr 04 min 27 sec)
Heartbeat CPU 0 instructions: 1250000004 cycles: 325500993 heartbeat IPC: 3.571 cumulative IPC: 3.449 (Simulation time: 01 hr 05 min 07 sec)
Heartbeat CPU 0 instructions: 1260000001 cycles: 328285966 heartbeat IPC: 3.591 cumulative IPC: 3.454 (Simulation time: 01 hr 05 min 47 sec)
Heartbeat CPU 0 instructions: 1270000002 cycles: 331081043 heartbeat IPC: 3.578 cumulative IPC: 3.458 (Simulation time: 01 hr 06 min 27 sec)
Heartbeat CPU 0 instructions: 1280000000 cycles: 333882025 heartbeat IPC: 3.57 cumulative IPC: 3.462 (Simulation time: 01 hr 07 min 07 sec)
Heartbeat CPU 0 instructions: 1290000002 cycles: 336710005 heartbeat IPC: 3.536 cumulative IPC: 3.465 (Simulation time: 01 hr 07 min 47 sec)
Heartbeat CPU 0 instructions: 1300000004 cycles: 339526797 heartbeat IPC: 3.55 cumulative IPC: 3.467 (Simulation time: 01 hr 08 min 27 sec)
Heartbeat CPU 0 instructions: 1310000004 cycles: 342315064 heartbeat IPC: 3.586 cumulative IPC: 3.471 (Simulation time: 01 hr 09 min 07 sec)
Heartbeat CPU 0 instructions: 1320000000 cycles: 345146320 heartbeat IPC: 3.532 cumulative IPC: 3.473 (Simulation time: 01 hr 09 min 47 sec)
Heartbeat CPU 0 instructions: 1330000000 cycles: 347873369 heartbeat IPC: 3.667 cumulative IPC: 3.479 (Simulation time: 01 hr 10 min 26 sec)
Heartbeat CPU 0 instructions: 1340000004 cycles: 350596556 heartbeat IPC: 3.672 cumulative IPC: 3.484 (Simulation time: 01 hr 11 min 05 sec)
Heartbeat CPU 0 instructions: 1350000000 cycles: 353322587 heartbeat IPC: 3.668 cumulative IPC: 3.489 (Simulation time: 01 hr 11 min 44 sec)
Heartbeat CPU 0 instructions: 1360000004 cycles: 357322413 heartbeat IPC: 2.5 cumulative IPC: 3.451 (Simulation time: 01 hr 12 min 36 sec)
Heartbeat CPU 0 instructions: 1370000004 cycles: 361590381 heartbeat IPC: 2.343 cumulative IPC: 3.407 (Simulation time: 01 hr 13 min 31 sec)
Heartbeat CPU 0 instructions: 1380000000 cycles: 364332592 heartbeat IPC: 3.647 cumulative IPC: 3.413 (Simulation time: 01 hr 14 min 10 sec)
Heartbeat CPU 0 instructions: 1390000002 cycles: 367074993 heartbeat IPC: 3.646 cumulative IPC: 3.419 (Simulation time: 01 hr 14 min 50 sec)
Heartbeat CPU 0 instructions: 1400000004 cycles: 369817931 heartbeat IPC: 3.646 cumulative IPC: 3.424 (Simulation time: 01 hr 15 min 29 sec)
Heartbeat CPU 0 instructions: 1410000004 cycles: 372585001 heartbeat IPC: 3.614 cumulative IPC: 3.429 (Simulation time: 01 hr 16 min 08 sec)
Heartbeat CPU 0 instructions: 1420000002 cycles: 375321369 heartbeat IPC: 3.654 cumulative IPC: 3.434 (Simulation time: 01 hr 16 min 46 sec)
Heartbeat CPU 0 instructions: 1430000000 cycles: 378057729 heartbeat IPC: 3.654 cumulative IPC: 3.439 (Simulation time: 01 hr 17 min 06 sec)
Heartbeat CPU 0 instructions: 1440000000 cycles: 380792885 heartbeat IPC: 3.656 cumulative IPC: 3.443 (Simulation time: 01 hr 17 min 27 sec)
Heartbeat CPU 0 instructions: 1450000002 cycles: 383593188 heartbeat IPC: 3.571 cumulative IPC: 3.446 (Simulation time: 01 hr 17 min 49 sec)
Heartbeat CPU 0 instructions: 1460000003 cycles: 386356683 heartbeat IPC: 3.619 cumulative IPC: 3.45 (Simulation time: 01 hr 18 min 10 sec)
Heartbeat CPU 0 instructions: 1470000000 cycles: 389169545 heartbeat IPC: 3.555 cumulative IPC: 3.452 (Simulation time: 01 hr 18 min 32 sec)
Heartbeat CPU 0 instructions: 1480000000 cycles: 392029946 heartbeat IPC: 3.496 cumulative IPC: 3.453 (Simulation time: 01 hr 18 min 54 sec)
Heartbeat CPU 0 instructions: 1490000000 cycles: 394805955 heartbeat IPC: 3.602 cumulative IPC: 3.456 (Simulation time: 01 hr 19 min 15 sec)
Heartbeat CPU 0 instructions: 1500000002 cycles: 397598103 heartbeat IPC: 3.581 cumulative IPC: 3.458 (Simulation time: 01 hr 19 min 36 sec)
Simulation finished CPU 0 instructions: 500000000 cycles: 144592103 cumulative IPC: 3.458 (Simulation time: 01 hr 19 min 36 sec)
Simulation complete CPU 0 instructions: 500000000 cycles: 144592103 cumulative IPC: 3.458 (Simulation time: 01 hr 19 min 36 sec)

ChampSim completed all CPUs

=== Simulation ===
CPU 0 runs traces/603.bwaves_s-1080B.champsimtrace.xz
Region of Interest Statistics

CPU 0 cumulative IPC: 3.458 instructions: 500000000 cycles: 144592103
CPU 0 Branch Prediction Accuracy: 99.06% MPKI: 1.368 Average ROB Occupancy at Mispredict: 127.7
Branch type MPKI
BRANCH_DIRECT_JUMP: 0.186
BRANCH_INDIRECT: 0
BRANCH_CONDITIONAL: 1.05
BRANCH_DIRECT_CALL: 0
BRANCH_INDIRECT_CALL: 0
BRANCH_RETURN: 0.131

LLC TOTAL        ACCESS:     328050 HIT:     156002 MISS:     172048
LLC LOAD         ACCESS:      15781 HIT:         15 MISS:      15766
LLC RFO          ACCESS:     156253 HIT:         14 MISS:     156239
LLC PREFETCH     ACCESS:          0 HIT:          0 MISS:          0
LLC WRITE        ACCESS:     155995 HIT:     155970 MISS:         25
LLC TRANSLATION  ACCESS:         21 HIT:          3 MISS:         18
LLC PREFETCH REQUESTED:          0 ISSUED:          0 USEFUL:          0 USELESS:          0
LLC AVERAGE MISS LATENCY: 408 cycles
cpu0_DTLB TOTAL        ACCESS:   82013764 HIT:   81989767 MISS:      23997
cpu0_DTLB LOAD         ACCESS:   82013764 HIT:   81989767 MISS:      23997
cpu0_DTLB RFO          ACCESS:          0 HIT:          0 MISS:          0
cpu0_DTLB PREFETCH     ACCESS:          0 HIT:          0 MISS:          0
cpu0_DTLB WRITE        ACCESS:          0 HIT:          0 MISS:          0
cpu0_DTLB TRANSLATION  ACCESS:          0 HIT:          0 MISS:          0
cpu0_DTLB PREFETCH REQUESTED:          0 ISSUED:          0 USEFUL:          0 USELESS:          0
cpu0_DTLB AVERAGE MISS LATENCY: 19.6 cycles
cpu0_ITLB TOTAL        ACCESS:    1898209 HIT:    1898209 MISS:          0
cpu0_ITLB LOAD         ACCESS:    1898209 HIT:    1898209 MISS:          0
cpu0_ITLB RFO          ACCESS:          0 HIT:          0 MISS:          0
cpu0_ITLB PREFETCH     ACCESS:          0 HIT:          0 MISS:          0
cpu0_ITLB WRITE        ACCESS:          0 HIT:          0 MISS:          0
cpu0_ITLB TRANSLATION  ACCESS:          0 HIT:          0 MISS:          0
cpu0_ITLB PREFETCH REQUESTED:          0 ISSUED:          0 USEFUL:          0 USELESS:          0
cpu0_ITLB AVERAGE MISS LATENCY: -nan cycles
cpu0_L1D TOTAL        ACCESS:  126094318 HIT:  124902172 MISS:    1192146
cpu0_L1D LOAD         ACCESS:  104978104 HIT:  104934618 MISS:      43486
cpu0_L1D RFO          ACCESS:          0 HIT:          0 MISS:          0
cpu0_L1D PREFETCH     ACCESS:          0 HIT:          0 MISS:          0
cpu0_L1D WRITE        ACCESS:   21113518 HIT:   19965123 MISS:    1148395
cpu0_L1D TRANSLATION  ACCESS:       2696 HIT:       2431 MISS:        265
cpu0_L1D PREFETCH REQUESTED:          0 ISSUED:          0 USEFUL:          0 USELESS:          0
cpu0_L1D AVERAGE MISS LATENCY: 59.13 cycles
cpu0_L1I TOTAL        ACCESS:    2200244 HIT:    2200244 MISS:          0
cpu0_L1I LOAD         ACCESS:    2200244 HIT:    2200244 MISS:          0
cpu0_L1I RFO          ACCESS:          0 HIT:          0 MISS:          0
cpu0_L1I PREFETCH     ACCESS:          0 HIT:          0 MISS:          0
cpu0_L1I WRITE        ACCESS:          0 HIT:          0 MISS:          0
cpu0_L1I TRANSLATION  ACCESS:          0 HIT:          0 MISS:          0
cpu0_L1I PREFETCH REQUESTED:          0 ISSUED:          0 USEFUL:          0 USELESS:          0
cpu0_L1I AVERAGE MISS LATENCY: -nan cycles
cpu0_L2C TOTAL        ACCESS:     331432 HIT:     159356 MISS:     172076
cpu0_L2C LOAD         ACCESS:      17006 HIT:       1225 MISS:      15781
cpu0_L2C RFO          ACCESS:     157350 HIT:       1097 MISS:     156253
cpu0_L2C PREFETCH     ACCESS:          0 HIT:          0 MISS:          0
cpu0_L2C WRITE        ACCESS:     156811 HIT:     156790 MISS:         21
cpu0_L2C TRANSLATION  ACCESS:        265 HIT:        244 MISS:         21
cpu0_L2C PREFETCH REQUESTED:          0 ISSUED:          0 USEFUL:          0 USELESS:          0
cpu0_L2C AVERAGE MISS LATENCY: 429 cycles
cpu0_STLB TOTAL        ACCESS:       2816 HIT:        125 MISS:       2691
cpu0_STLB LOAD         ACCESS:       2816 HIT:        125 MISS:       2691
cpu0_STLB RFO          ACCESS:          0 HIT:          0 MISS:          0
cpu0_STLB PREFETCH     ACCESS:          0 HIT:          0 MISS:          0
cpu0_STLB WRITE        ACCESS:          0 HIT:          0 MISS:          0
cpu0_STLB TRANSLATION  ACCESS:          0 HIT:          0 MISS:          0
cpu0_STLB PREFETCH REQUESTED:          0 ISSUED:          0 USEFUL:          0 USELESS:          0
cpu0_STLB AVERAGE MISS LATENCY: 209.9 cycles

DRAM Statistics

Channel 0 RQ ROW_BUFFER_HIT:      59689
  ROW_BUFFER_MISS:     112334
 AVG DBUS CONGESTED CYCLE: 3.931
WQ ROW_BUFFER_HIT: Channel 0 
  ROW_BUFFER_MISS:      53961
  FULL:     101962
