WARNING: physical memory size is smaller than virtual memory size.

*** ChampSim Multicore Out-of-Order Simulator ***
Warmup Instructions: 1000000000
Simulation Instructions: 500000000
Number of CPUs: 1
Page size: 4096

Off-chip DRAM Size: 4 GiB Channels: 1 Width: 64-bit Data Race: 3200 MT/s
Heartbeat CPU 0 instructions: 10000002 cycles: 2501536 heartbeat IPC: 3.998 cumulative IPC: 3.998 (Simulation time: 00 hr 00 min 30 sec)
Heartbeat CPU 0 instructions: 20000001 cycles: 5001830 heartbeat IPC: 4 cumulative IPC: 3.999 (Simulation time: 00 hr 01 min 05 sec)
Heartbeat CPU 0 instructions: 30000000 cycles: 7502479 heartbeat IPC: 3.999 cumulative IPC: 3.999 (Simulation time: 00 hr 01 min 38 sec)
Heartbeat CPU 0 instructions: 40000001 cycles: 10003160 heartbeat IPC: 3.999 cumulative IPC: 3.999 (Simulation time: 00 hr 02 min 10 sec)
Heartbeat CPU 0 instructions: 50000000 cycles: 12503908 heartbeat IPC: 3.999 cumulative IPC: 3.999 (Simulation time: 00 hr 02 min 43 sec)
Heartbeat CPU 0 instructions: 60000000 cycles: 15006118 heartbeat IPC: 3.996 cumulative IPC: 3.998 (Simulation time: 00 hr 03 min 16 sec)
Heartbeat CPU 0 instructions: 70000003 cycles: 17508359 heartbeat IPC: 3.996 cumulative IPC: 3.998 (Simulation time: 00 hr 03 min 49 sec)
Heartbeat CPU 0 instructions: 80000001 cycles: 20010602 heartbeat IPC: 3.996 cumulative IPC: 3.998 (Simulation time: 00 hr 04 min 21 sec)
Heartbeat CPU 0 instructions: 90000001 cycles: 22512792 heartbeat IPC: 3.996 cumulative IPC: 3.998 (Simulation time: 00 hr 04 min 54 sec)
Heartbeat CPU 0 instructions: 100000003 cycles: 25015504 heartbeat IPC: 3.996 cumulative IPC: 3.998 (Simulation time: 00 hr 05 min 27 sec)
Heartbeat CPU 0 instructions: 110000003 cycles: 27518420 heartbeat IPC: 3.995 cumulative IPC: 3.997 (Simulation time: 00 hr 05 min 59 sec)
Heartbeat CPU 0 instructions: 120000003 cycles: 30021571 heartbeat IPC: 3.995 cumulative IPC: 3.997 (Simulation time: 00 hr 06 min 32 sec)
Heartbeat CPU 0 instructions: 130000002 cycles: 32524714 heartbeat IPC: 3.995 cumulative IPC: 3.997 (Simulation time: 00 hr 07 min 04 sec)
Heartbeat CPU 0 instructions: 140000000 cycles: 35027848 heartbeat IPC: 3.995 cumulative IPC: 3.997 (Simulation time: 00 hr 07 min 37 sec)
Heartbeat CPU 0 instructions: 150000000 cycles: 37530555 heartbeat IPC: 3.996 cumulative IPC: 3.997 (Simulation time: 00 hr 08 min 10 sec)
Heartbeat CPU 0 instructions: 160000000 cycles: 40033353 heartbeat IPC: 3.996 cumulative IPC: 3.997 (Simulation time: 00 hr 08 min 42 sec)
Heartbeat CPU 0 instructions: 170000003 cycles: 42535897 heartbeat IPC: 3.996 cumulative IPC: 3.997 (Simulation time: 00 hr 09 min 15 sec)
Heartbeat CPU 0 instructions: 180000000 cycles: 45038691 heartbeat IPC: 3.996 cumulative IPC: 3.997 (Simulation time: 00 hr 09 min 47 sec)
Heartbeat CPU 0 instructions: 190000000 cycles: 47541306 heartbeat IPC: 3.996 cumulative IPC: 3.997 (Simulation time: 00 hr 10 min 20 sec)
Heartbeat CPU 0 instructions: 200000002 cycles: 50043948 heartbeat IPC: 3.996 cumulative IPC: 3.996 (Simulation time: 00 hr 10 min 52 sec)
Heartbeat CPU 0 instructions: 210000002 cycles: 52546733 heartbeat IPC: 3.996 cumulative IPC: 3.996 (Simulation time: 00 hr 11 min 25 sec)
Heartbeat CPU 0 instructions: 220000002 cycles: 55049276 heartbeat IPC: 3.996 cumulative IPC: 3.996 (Simulation time: 00 hr 11 min 57 sec)
Heartbeat CPU 0 instructions: 230000000 cycles: 57552002 heartbeat IPC: 3.996 cumulative IPC: 3.996 (Simulation time: 00 hr 12 min 30 sec)
Heartbeat CPU 0 instructions: 240000000 cycles: 60054644 heartbeat IPC: 3.996 cumulative IPC: 3.996 (Simulation time: 00 hr 13 min 02 sec)
Heartbeat CPU 0 instructions: 250000002 cycles: 62557252 heartbeat IPC: 3.996 cumulative IPC: 3.996 (Simulation time: 00 hr 13 min 35 sec)
Heartbeat CPU 0 instructions: 260000003 cycles: 65060017 heartbeat IPC: 3.996 cumulative IPC: 3.996 (Simulation time: 00 hr 14 min 07 sec)
Heartbeat CPU 0 instructions: 270000002 cycles: 67562614 heartbeat IPC: 3.996 cumulative IPC: 3.996 (Simulation time: 00 hr 14 min 40 sec)
Heartbeat CPU 0 instructions: 280000001 cycles: 70065273 heartbeat IPC: 3.996 cumulative IPC: 3.996 (Simulation time: 00 hr 15 min 13 sec)
Heartbeat CPU 0 instructions: 290000000 cycles: 72567982 heartbeat IPC: 3.996 cumulative IPC: 3.996 (Simulation time: 00 hr 15 min 45 sec)
Heartbeat CPU 0 instructions: 300000000 cycles: 75070583 heartbeat IPC: 3.996 cumulative IPC: 3.996 (Simulation time: 00 hr 16 min 18 sec)
Heartbeat CPU 0 instructions: 310000003 cycles: 77573288 heartbeat IPC: 3.996 cumulative IPC: 3.996 (Simulation time: 00 hr 16 min 51 sec)
Heartbeat CPU 0 instructions: 320000002 cycles: 80075952 heartbeat IPC: 3.996 cumulative IPC: 3.996 (Simulation time: 00 hr 17 min 25 sec)
Heartbeat CPU 0 instructions: 330000001 cycles: 82578689 heartbeat IPC: 3.996 cumulative IPC: 3.996 (Simulation time: 00 hr 17 min 58 sec)
Heartbeat CPU 0 instructions: 340000001 cycles: 85081456 heartbeat IPC: 3.996 cumulative IPC: 3.996 (Simulation time: 00 hr 18 min 31 sec)
Heartbeat CPU 0 instructions: 350000001 cycles: 87584566 heartbeat IPC: 3.995 cumulative IPC: 3.996 (Simulation time: 00 hr 19 min 04 sec)
Heartbeat CPU 0 instructions: 360000001 cycles: 90087775 heartbeat IPC: 3.995 cumulative IPC: 3.996 (Simulation time: 00 hr 19 min 37 sec)
Heartbeat CPU 0 instructions: 370000002 cycles: 92590885 heartbeat IPC: 3.995 cumulative IPC: 3.996 (Simulation time: 00 hr 20 min 10 sec)
Heartbeat CPU 0 instructions: 380000003 cycles: 95093741 heartbeat IPC: 3.995 cumulative IPC: 3.996 (Simulation time: 00 hr 20 min 43 sec)
Heartbeat CPU 0 instructions: 390000001 cycles: 97596379 heartbeat IPC: 3.996 cumulative IPC: 3.996 (Simulation time: 00 hr 21 min 16 sec)
Heartbeat CPU 0 instructions: 400000003 cycles: 100098623 heartbeat IPC: 3.996 cumulative IPC: 3.996 (Simulation time: 00 hr 21 min 49 sec)
Heartbeat CPU 0 instructions: 410000002 cycles: 102600863 heartbeat IPC: 3.996 cumulative IPC: 3.996 (Simulation time: 00 hr 22 min 22 sec)
Heartbeat CPU 0 instructions: 420000001 cycles: 105103067 heartbeat IPC: 3.996 cumulative IPC: 3.996 (Simulation time: 00 hr 22 min 55 sec)
Heartbeat CPU 0 instructions: 430000001 cycles: 107605162 heartbeat IPC: 3.997 cumulative IPC: 3.996 (Simulation time: 00 hr 23 min 28 sec)
Heartbeat CPU 0 instructions: 440000000 cycles: 110105839 heartbeat IPC: 3.999 cumulative IPC: 3.996 (Simulation time: 00 hr 24 min 01 sec)
Heartbeat CPU 0 instructions: 450000000 cycles: 112606488 heartbeat IPC: 3.999 cumulative IPC: 3.996 (Simulation time: 00 hr 24 min 34 sec)
Heartbeat CPU 0 instructions: 460000001 cycles: 115107169 heartbeat IPC: 3.999 cumulative IPC: 3.996 (Simulation time: 00 hr 25 min 08 sec)
Heartbeat CPU 0 instructions: 470000003 cycles: 117607408 heartbeat IPC: 4 cumulative IPC: 3.996 (Simulation time: 00 hr 25 min 43 sec)
Heartbeat CPU 0 instructions: 480000002 cycles: 120108913 heartbeat IPC: 3.998 cumulative IPC: 3.996 (Simulation time: 00 hr 26 min 18 sec)
Heartbeat CPU 0 instructions: 490000001 cycles: 122611871 heartbeat IPC: 3.995 cumulative IPC: 3.996 (Simulation time: 00 hr 26 min 51 sec)
Heartbeat CPU 0 instructions: 500000003 cycles: 125114632 heartbeat IPC: 3.996 cumulative IPC: 3.996 (Simulation time: 00 hr 27 min 24 sec)
Heartbeat CPU 0 instructions: 510000001 cycles: 127617209 heartbeat IPC: 3.996 cumulative IPC: 3.996 (Simulation time: 00 hr 27 min 57 sec)
Heartbeat CPU 0 instructions: 520000001 cycles: 130119869 heartbeat IPC: 3.996 cumulative IPC: 3.996 (Simulation time: 00 hr 28 min 30 sec)
Heartbeat CPU 0 instructions: 530000001 cycles: 132621335 heartbeat IPC: 3.998 cumulative IPC: 3.996 (Simulation time: 00 hr 29 min 04 sec)
Heartbeat CPU 0 instructions: 540000003 cycles: 135122682 heartbeat IPC: 3.998 cumulative IPC: 3.996 (Simulation time: 00 hr 29 min 38 sec)
Heartbeat CPU 0 instructions: 550000003 cycles: 137624064 heartbeat IPC: 3.998 cumulative IPC: 3.996 (Simulation time: 00 hr 30 min 12 sec)
Heartbeat CPU 0 instructions: 560000002 cycles: 140125447 heartbeat IPC: 3.998 cumulative IPC: 3.996 (Simulation time: 00 hr 30 min 46 sec)
Heartbeat CPU 0 instructions: 570000003 cycles: 142626833 heartbeat IPC: 3.998 cumulative IPC: 3.996 (Simulation time: 00 hr 31 min 20 sec)
Heartbeat CPU 0 instructions: 580000002 cycles: 145128216 heartbeat IPC: 3.998 cumulative IPC: 3.996 (Simulation time: 00 hr 31 min 53 sec)
Heartbeat CPU 0 instructions: 590000001 cycles: 147629522 heartbeat IPC: 3.998 cumulative IPC: 3.996 (Simulation time: 00 hr 32 min 27 sec)
Heartbeat CPU 0 instructions: 600000001 cycles: 150130825 heartbeat IPC: 3.998 cumulative IPC: 3.997 (Simulation time: 00 hr 33 min 01 sec)
Heartbeat CPU 0 instructions: 610000001 cycles: 152632128 heartbeat IPC: 3.998 cumulative IPC: 3.997 (Simulation time: 00 hr 33 min 35 sec)
Heartbeat CPU 0 instructions: 620000001 cycles: 155133431 heartbeat IPC: 3.998 cumulative IPC: 3.997 (Simulation time: 00 hr 34 min 09 sec)
Heartbeat CPU 0 instructions: 630000001 cycles: 157634734 heartbeat IPC: 3.998 cumulative IPC: 3.997 (Simulation time: 00 hr 34 min 43 sec)
Heartbeat CPU 0 instructions: 640000002 cycles: 160136179 heartbeat IPC: 3.998 cumulative IPC: 3.997 (Simulation time: 00 hr 35 min 16 sec)
Heartbeat CPU 0 instructions: 650000003 cycles: 162638619 heartbeat IPC: 3.996 cumulative IPC: 3.997 (Simulation time: 00 hr 35 min 50 sec)
Heartbeat CPU 0 instructions: 660000003 cycles: 165141362 heartbeat IPC: 3.996 cumulative IPC: 3.997 (Simulation time: 00 hr 36 min 23 sec)
Heartbeat CPU 0 instructions: 670000003 cycles: 167643721 heartbeat IPC: 3.996 cumulative IPC: 3.997 (Simulation time: 00 hr 36 min 56 sec)
Heartbeat CPU 0 instructions: 680000003 cycles: 170146693 heartbeat IPC: 3.995 cumulative IPC: 3.997 (Simulation time: 00 hr 37 min 29 sec)
Heartbeat CPU 0 instructions: 690000001 cycles: 172649616 heartbeat IPC: 3.995 cumulative IPC: 3.997 (Simulation time: 00 hr 38 min 02 sec)
Heartbeat CPU 0 instructions: 700000003 cycles: 175152540 heartbeat IPC: 3.995 cumulative IPC: 3.997 (Simulation time: 00 hr 38 min 35 sec)
Heartbeat CPU 0 instructions: 710000003 cycles: 177655450 heartbeat IPC: 3.995 cumulative IPC: 3.996 (Simulation time: 00 hr 39 min 08 sec)
Heartbeat CPU 0 instructions: 720000001 cycles: 180157923 heartbeat IPC: 3.996 cumulative IPC: 3.996 (Simulation time: 00 hr 39 min 41 sec)
Heartbeat CPU 0 instructions: 730000003 cycles: 182658106 heartbeat IPC: 4 cumulative IPC: 3.997 (Simulation time: 00 hr 40 min 17 sec)
Heartbeat CPU 0 instructions: 740000000 cycles: 185160029 heartbeat IPC: 3.997 cumulative IPC: 3.997 (Simulation time: 00 hr 40 min 51 sec)
Heartbeat CPU 0 instructions: 750000001 cycles: 187663232 heartbeat IPC: 3.995 cumulative IPC: 3.997 (Simulation time: 00 hr 41 min 24 sec)
Heartbeat CPU 0 instructions: 760000001 cycles: 190166335 heartbeat IPC: 3.995 cumulative IPC: 3.997 (Simulation time: 00 hr 41 min 57 sec)
Heartbeat CPU 0 instructions: 770000000 cycles: 192669481 heartbeat IPC: 3.995 cumulative IPC: 3.996 (Simulation time: 00 hr 42 min 30 sec)
Heartbeat CPU 0 instructions: 780000001 cycles: 195172363 heartbeat IPC: 3.995 cumulative IPC: 3.996 (Simulation time: 00 hr 43 min 03 sec)
Heartbeat CPU 0 instructions: 790000000 cycles: 197675432 heartbeat IPC: 3.995 cumulative IPC: 3.996 (Simulation time: 00 hr 43 min 36 sec)
Heartbeat CPU 0 instructions: 800000003 cycles: 200177739 heartbeat IPC: 3.996 cumulative IPC: 3.996 (Simulation time: 00 hr 44 min 09 sec)
Heartbeat CPU 0 instructions: 810000001 cycles: 202679702 heartbeat IPC: 3.997 cumulative IPC: 3.996 (Simulation time: 00 hr 44 min 42 sec)
Heartbeat CPU 0 instructions: 820000000 cycles: 205181575 heartbeat IPC: 3.997 cumulative IPC: 3.996 (Simulation time: 00 hr 45 min 16 sec)
Heartbeat CPU 0 instructions: 830000001 cycles: 207683832 heartbeat IPC: 3.996 cumulative IPC: 3.996 (Simulation time: 00 hr 45 min 49 sec)
Heartbeat CPU 0 instructions: 840000000 cycles: 210186049 heartbeat IPC: 3.996 cumulative IPC: 3.996 (Simulation time: 00 hr 46 min 22 sec)
Heartbeat CPU 0 instructions: 850000001 cycles: 212688306 heartbeat IPC: 3.996 cumulative IPC: 3.996 (Simulation time: 00 hr 46 min 55 sec)
Heartbeat CPU 0 instructions: 860000000 cycles: 215190563 heartbeat IPC: 3.996 cumulative IPC: 3.996 (Simulation time: 00 hr 47 min 28 sec)
Heartbeat CPU 0 instructions: 870000001 cycles: 217692820 heartbeat IPC: 3.996 cumulative IPC: 3.996 (Simulation time: 00 hr 48 min 02 sec)
Heartbeat CPU 0 instructions: 880000002 cycles: 220195077 heartbeat IPC: 3.996 cumulative IPC: 3.996 (Simulation time: 00 hr 48 min 35 sec)
Heartbeat CPU 0 instructions: 890000001 cycles: 222697294 heartbeat IPC: 3.996 cumulative IPC: 3.996 (Simulation time: 00 hr 49 min 08 sec)
Heartbeat CPU 0 instructions: 900000001 cycles: 225199538 heartbeat IPC: 3.996 cumulative IPC: 3.996 (Simulation time: 00 hr 49 min 41 sec)
Heartbeat CPU 0 instructions: 910000003 cycles: 227701782 heartbeat IPC: 3.996 cumulative IPC: 3.996 (Simulation time: 00 hr 50 min 15 sec)
Heartbeat CPU 0 instructions: 920000003 cycles: 230204026 heartbeat IPC: 3.996 cumulative IPC: 3.996 (Simulation time: 00 hr 50 min 48 sec)
Heartbeat CPU 0 instructions: 930000001 cycles: 232705660 heartbeat IPC: 3.997 cumulative IPC: 3.996 (Simulation time: 00 hr 51 min 21 sec)
Heartbeat CPU 0 instructions: 940000002 cycles: 235207905 heartbeat IPC: 3.996 cumulative IPC: 3.996 (Simulation time: 00 hr 51 min 55 sec)
Heartbeat CPU 0 instructions: 950000000 cycles: 237710155 heartbeat IPC: 3.996 cumulative IPC: 3.996 (Simulation time: 00 hr 52 min 28 sec)
Heartbeat CPU 0 instructions: 960000000 cycles: 240212950 heartbeat IPC: 3.996 cumulative IPC: 3.996 (Simulation time: 00 hr 53 min 01 sec)
Heartbeat CPU 0 instructions: 970000001 cycles: 242715830 heartbeat IPC: 3.995 cumulative IPC: 3.996 (Simulation time: 00 hr 53 min 34 sec)
Heartbeat CPU 0 instructions: 980000002 cycles: 245218975 heartbeat IPC: 3.995 cumulative IPC: 3.996 (Simulation time: 00 hr 54 min 08 sec)
Heartbeat CPU 0 instructions: 990000001 cycles: 247722086 heartbeat IPC: 3.995 cumulative IPC: 3.996 (Simulation time: 00 hr 54 min 41 sec)
Heartbeat CPU 0 instructions: 1000000002 cycles: 250225240 heartbeat IPC: 3.995 cumulative IPC: 3.996 (Simulation time: 00 hr 55 min 14 sec)
Warmup finished CPU 0 instructions: 1000000002 cycles: 250225241 cumulative IPC: 3.996 (Simulation time: 00 hr 55 min 14 sec)
Warmup complete CPU 0 instructions: 1000000002 cycles: 250225241 cumulative IPC: 3.996 (Simulation time: 00 hr 55 min 14 sec)
Heartbeat CPU 0 instructions: 1010000000 cycles: 255634452 heartbeat IPC: 1.849 cumulative IPC: 1.849 (Simulation time: 00 hr 56 min 12 sec)
Heartbeat CPU 0 instructions: 1020000004 cycles: 261392903 heartbeat IPC: 1.737 cumulative IPC: 1.791 (Simulation time: 00 hr 57 min 18 sec)
Heartbeat CPU 0 instructions: 1030000002 cycles: 266511674 heartbeat IPC: 1.954 cumulative IPC: 1.842 (Simulation time: 00 hr 58 min 10 sec)
Heartbeat CPU 0 instructions: 1040000002 cycles: 271623174 heartbeat IPC: 1.956 cumulative IPC: 1.869 (Simulation time: 00 hr 59 min 02 sec)
Heartbeat CPU 0 instructions: 1050000000 cycles: 276742269 heartbeat IPC: 1.953 cumulative IPC: 1.886 (Simulation time: 00 hr 59 min 54 sec)
Heartbeat CPU 0 instructions: 1060000002 cycles: 281895428 heartbeat IPC: 1.941 cumulative IPC: 1.895 (Simulation time: 01 hr 00 min 47 sec)
Heartbeat CPU 0 instructions: 1070000000 cycles: 287128078 heartbeat IPC: 1.911 cumulative IPC: 1.897 (Simulation time: 01 hr 01 min 41 sec)
Heartbeat CPU 0 instructions: 1080000000 cycles: 292556427 heartbeat IPC: 1.842 cumulative IPC: 1.89 (Simulation time: 01 hr 02 min 35 sec)
Heartbeat CPU 0 instructions: 1090000000 cycles: 298105395 heartbeat IPC: 1.802 cumulative IPC: 1.88 (Simulation time: 01 hr 03 min 31 sec)
Heartbeat CPU 0 instructions: 1100000001 cycles: 303500061 heartbeat IPC: 1.854 cumulative IPC: 1.877 (Simulation time: 01 hr 04 min 25 sec)
Heartbeat CPU 0 instructions: 1110000003 cycles: 308773731 heartbeat IPC: 1.896 cumulative IPC: 1.879 (Simulation time: 01 hr 05 min 18 sec)
Heartbeat CPU 0 instructions: 1120000002 cycles: 313977672 heartbeat IPC: 1.922 cumulative IPC: 1.882 (Simulation time: 01 hr 06 min 10 sec)
Heartbeat CPU 0 instructions: 1130000002 cycles: 319477711 heartbeat IPC: 1.818 cumulative IPC: 1.877 (Simulation time: 01 hr 07 min 05 sec)
Heartbeat CPU 0 instructions: 1140000001 cycles: 324731894 heartbeat IPC: 1.903 cumulative IPC: 1.879 (Simulation time: 01 hr 07 min 58 sec)
Heartbeat CPU 0 instructions: 1150000000 cycles: 329980127 heartbeat IPC: 1.905 cumulative IPC: 1.881 (Simulation time: 01 hr 08 min 51 sec)
Heartbeat CPU 0 instructions: 1160000000 cycles: 335315779 heartbeat IPC: 1.874 cumulative IPC: 1.88 (Simulation time: 01 hr 09 min 45 sec)
Heartbeat CPU 0 instructions: 1170000001 cycles: 340564327 heartbeat IPC: 1.905 cumulative IPC: 1.882 (Simulation time: 01 hr 10 min 38 sec)
Heartbeat CPU 0 instructions: 1180000000 cycles: 345900561 heartbeat IPC: 1.874 cumulative IPC: 1.881 (Simulation time: 01 hr 11 min 31 sec)
Heartbeat CPU 0 instructions: 1190000000 cycles: 351145479 heartbeat IPC: 1.907 cumulative IPC: 1.883 (Simulation time: 01 hr 12 min 24 sec)
Heartbeat CPU 0 instructions: 1200000001 cycles: 356480126 heartbeat IPC: 1.875 cumulative IPC: 1.882 (Simulation time: 01 hr 13 min 17 sec)
Heartbeat CPU 0 instructions: 1210000001 cycles: 361712535 heartbeat IPC: 1.911 cumulative IPC: 1.884 (Simulation time: 01 hr 14 min 03 sec)
Heartbeat CPU 0 instructions: 1220000003 cycles: 366961843 heartbeat IPC: 1.905 cumulative IPC: 1.885 (Simulation time: 01 hr 14 min 31 sec)
Heartbeat CPU 0 instructions: 1230000001 cycles: 372295658 heartbeat IPC: 1.875 cumulative IPC: 1.884 (Simulation time: 01 hr 14 min 58 sec)
Heartbeat CPU 0 instructions: 1240000002 cycles: 377540721 heartbeat IPC: 1.907 cumulative IPC: 1.885 (Simulation time: 01 hr 15 min 26 sec)
Heartbeat CPU 0 instructions: 1250000000 cycles: 383031779 heartbeat IPC: 1.821 cumulative IPC: 1.882 (Simulation time: 01 hr 15 min 54 sec)
Heartbeat CPU 0 instructions: 1260000001 cycles: 388264271 heartbeat IPC: 1.911 cumulative IPC: 1.884 (Simulation time: 01 hr 16 min 21 sec)
Heartbeat CPU 0 instructions: 1270000002 cycles: 393494113 heartbeat IPC: 1.912 cumulative IPC: 1.885 (Simulation time: 01 hr 16 min 48 sec)
Heartbeat CPU 0 instructions: 1280000000 cycles: 398952870 heartbeat IPC: 1.832 cumulative IPC: 1.883 (Simulation time: 01 hr 17 min 16 sec)
Heartbeat CPU 0 instructions: 1290000002 cycles: 404263688 heartbeat IPC: 1.883 cumulative IPC: 1.883 (Simulation time: 01 hr 17 min 44 sec)
Heartbeat CPU 0 instructions: 1300000001 cycles: 409675283 heartbeat IPC: 1.848 cumulative IPC: 1.881 (Simulation time: 01 hr 18 min 12 sec)
Heartbeat CPU 0 instructions: 1310000003 cycles: 414827397 heartbeat IPC: 1.941 cumulative IPC: 1.883 (Simulation time: 01 hr 18 min 38 sec)
Heartbeat CPU 0 instructions: 1320000002 cycles: 419989797 heartbeat IPC: 1.937 cumulative IPC: 1.885 (Simulation time: 01 hr 19 min 05 sec)
Heartbeat CPU 0 instructions: 1330000002 cycles: 425109390 heartbeat IPC: 1.953 cumulative IPC: 1.887 (Simulation time: 01 hr 19 min 32 sec)
Heartbeat CPU 0 instructions: 1340000004 cycles: 430220902 heartbeat IPC: 1.956 cumulative IPC: 1.889 (Simulation time: 01 hr 19 min 59 sec)
Heartbeat CPU 0 instructions: 1350000002 cycles: 435339725 heartbeat IPC: 1.954 cumulative IPC: 1.891 (Simulation time: 01 hr 20 min 25 sec)
Heartbeat CPU 0 instructions: 1360000004 cycles: 440869856 heartbeat IPC: 1.808 cumulative IPC: 1.888 (Simulation time: 01 hr 20 min 57 sec)
Heartbeat CPU 0 instructions: 1370000003 cycles: 446481247 heartbeat IPC: 1.782 cumulative IPC: 1.885 (Simulation time: 01 hr 21 min 30 sec)
Heartbeat CPU 0 instructions: 1380000000 cycles: 451615568 heartbeat IPC: 1.948 cumulative IPC: 1.887 (Simulation time: 01 hr 21 min 56 sec)
Heartbeat CPU 0 instructions: 1390000002 cycles: 456750268 heartbeat IPC: 1.948 cumulative IPC: 1.888 (Simulation time: 01 hr 22 min 23 sec)
Heartbeat CPU 0 instructions: 1400000000 cycles: 461889396 heartbeat IPC: 1.946 cumulative IPC: 1.89 (Simulation time: 01 hr 22 min 49 sec)
Heartbeat CPU 0 instructions: 1410000004 cycles: 467024106 heartbeat IPC: 1.948 cumulative IPC: 1.891 (Simulation time: 01 hr 23 min 16 sec)
Heartbeat CPU 0 instructions: 1420000000 cycles: 472155190 heartbeat IPC: 1.949 cumulative IPC: 1.892 (Simulation time: 01 hr 23 min 43 sec)
Heartbeat CPU 0 instructions: 1430000001 cycles: 477286206 heartbeat IPC: 1.949 cumulative IPC: 1.894 (Simulation time: 01 hr 24 min 10 sec)
Heartbeat CPU 0 instructions: 1440000000 cycles: 482413053 heartbeat IPC: 1.951 cumulative IPC: 1.895 (Simulation time: 01 hr 24 min 36 sec)
Heartbeat CPU 0 instructions: 1450000002 cycles: 487758788 heartbeat IPC: 1.871 cumulative IPC: 1.894 (Simulation time: 01 hr 25 min 04 sec)
Heartbeat CPU 0 instructions: 1460000002 cycles: 493109920 heartbeat IPC: 1.869 cumulative IPC: 1.894 (Simulation time: 01 hr 25 min 31 sec)
Heartbeat CPU 0 instructions: 1470000000 cycles: 498523042 heartbeat IPC: 1.847 cumulative IPC: 1.893 (Simulation time: 01 hr 26 min 00 sec)
Heartbeat CPU 0 instructions: 1480000000 cycles: 504193167 heartbeat IPC: 1.764 cumulative IPC: 1.89 (Simulation time: 01 hr 26 min 29 sec)
Heartbeat CPU 0 instructions: 1490000002 cycles: 509433251 heartbeat IPC: 1.908 cumulative IPC: 1.89 (Simulation time: 01 hr 26 min 56 sec)
Heartbeat CPU 0 instructions: 1500000000 cycles: 514811814 heartbeat IPC: 1.859 cumulative IPC: 1.89 (Simulation time: 01 hr 27 min 23 sec)
Simulation finished CPU 0 instructions: 500000003 cycles: 264586575 cumulative IPC: 1.89 (Simulation time: 01 hr 27 min 23 sec)
Simulation complete CPU 0 instructions: 500000003 cycles: 264586575 cumulative IPC: 1.89 (Simulation time: 01 hr 27 min 23 sec)

ChampSim completed all CPUs

=== Simulation ===
CPU 0 runs traces/603.bwaves_s-1080B.champsimtrace.xz
Region of Interest Statistics

CPU 0 cumulative IPC: 1.89 instructions: 500000003 cycles: 264586575
CPU 0 Branch Prediction Accuracy: 83.25% MPKI: 24.31 Average ROB Occupancy at Mispredict: 15.12
Branch type MPKI
BRANCH_DIRECT_JUMP: 0.186
BRANCH_INDIRECT: 0
BRANCH_CONDITIONAL: 24
BRANCH_DIRECT_CALL: 0
BRANCH_INDIRECT_CALL: 0
BRANCH_RETURN: 0.131

LLC TOTAL        ACCESS:     328012 HIT:     155967 MISS:     172045
LLC LOAD         ACCESS:      15724 HIT:         12 MISS:      15712
LLC RFO          ACCESS:     156315 HIT:         16 MISS:     156299
LLC PREFETCH     ACCESS:          0 HIT:          0 MISS:          0
LLC WRITE        ACCESS:     155952 HIT:     155936 MISS:         16
LLC TRANSLATION  ACCESS:         21 HIT:          3 MISS:         18
LLC PREFETCH REQUESTED:          0 ISSUED:          0 USEFUL:          0 USELESS:          0
LLC AVERAGE MISS LATENCY: 410.8 cycles
cpu0_DTLB TOTAL        ACCESS:   83569391 HIT:   83545472 MISS:      23919
cpu0_DTLB LOAD         ACCESS:   83569391 HIT:   83545472 MISS:      23919
cpu0_DTLB RFO          ACCESS:          0 HIT:          0 MISS:          0
cpu0_DTLB PREFETCH     ACCESS:          0 HIT:          0 MISS:          0
cpu0_DTLB WRITE        ACCESS:          0 HIT:          0 MISS:          0
cpu0_DTLB TRANSLATION  ACCESS:          0 HIT:          0 MISS:          0
cpu0_DTLB PREFETCH REQUESTED:          0 ISSUED:          0 USEFUL:          0 USELESS:          0
cpu0_DTLB AVERAGE MISS LATENCY: 19.64 cycles
cpu0_ITLB TOTAL        ACCESS:    1874614 HIT:    1874614 MISS:          0
cpu0_ITLB LOAD         ACCESS:    1874614 HIT:    1874614 MISS:          0
cpu0_ITLB RFO          ACCESS:          0 HIT:          0 MISS:          0
cpu0_ITLB PREFETCH     ACCESS:          0 HIT:          0 MISS:          0
cpu0_ITLB WRITE        ACCESS:          0 HIT:          0 MISS:          0
cpu0_ITLB TRANSLATION  ACCESS:          0 HIT:          0 MISS:          0
cpu0_ITLB PREFETCH REQUESTED:          0 ISSUED:          0 USEFUL:          0 USELESS:          0
cpu0_ITLB AVERAGE MISS LATENCY: -nan cycles
cpu0_L1D TOTAL        ACCESS:  127972513 HIT:  126779969 MISS:    1192544
cpu0_L1D LOAD         ACCESS:  106844603 HIT:  106801103 MISS:      43500
cpu0_L1D RFO          ACCESS:          0 HIT:          0 MISS:          0
cpu0_L1D PREFETCH     ACCESS:          0 HIT:          0 MISS:          0
cpu0_L1D WRITE        ACCESS:   21125214 HIT:   19976435 MISS:    1148779
cpu0_L1D TRANSLATION  ACCESS:       2696 HIT:       2431 MISS:        265
cpu0_L1D PREFETCH REQUESTED:          0 ISSUED:          0 USEFUL:          0 USELESS:          0
cpu0_L1D AVERAGE MISS LATENCY: 59.48 cycles
cpu0_L1I TOTAL        ACCESS:    2154492 HIT:    2154492 MISS:          0
cpu0_L1I LOAD         ACCESS:    2154492 HIT:    2154492 MISS:          0
cpu0_L1I RFO          ACCESS:          0 HIT:          0 MISS:          0
cpu0_L1I PREFETCH     ACCESS:          0 HIT:          0 MISS:          0
cpu0_L1I WRITE        ACCESS:          0 HIT:          0 MISS:          0
cpu0_L1I TRANSLATION  ACCESS:          0 HIT:          0 MISS:          0
cpu0_L1I PREFETCH REQUESTED:          0 ISSUED:          0 USEFUL:          0 USELESS:          0
cpu0_L1I AVERAGE MISS LATENCY: -nan cycles
cpu0_L2C TOTAL        ACCESS:     331559 HIT:     159484 MISS:     172075
cpu0_L2C LOAD         ACCESS:      16927 HIT:       1203 MISS:      15724
cpu0_L2C RFO          ACCESS:     157528 HIT:       1213 MISS:     156315
cpu0_L2C PREFETCH     ACCESS:          0 HIT:          0 MISS:          0
cpu0_L2C WRITE        ACCESS:     156839 HIT:     156824 MISS:         15
cpu0_L2C TRANSLATION  ACCESS:        265 HIT:        244 MISS:         21
cpu0_L2C PREFETCH REQUESTED:          0 ISSUED:          0 USEFUL:          0 USELESS:          0
cpu0_L2C AVERAGE MISS LATENCY: 431.7 cycles
cpu0_STLB TOTAL        ACCESS:       2816 HIT:        125 MISS:       2691
cpu0_STLB LOAD         ACCESS:       2816 HIT:        125 MISS:       2691
cpu0_STLB RFO          ACCESS:          0 HIT:          0 MISS:          0
cpu0_STLB PREFETCH     ACCESS:          0 HIT:          0 MISS:          0
cpu0_STLB WRITE        ACCESS:          0 HIT:          0 MISS:          0
cpu0_STLB TRANSLATION  ACCESS:          0 HIT:          0 MISS:          0
cpu0_STLB PREFETCH REQUESTED:          0 ISSUED:          0 USEFUL:          0 USELESS:          0
cpu0_STLB AVERAGE MISS LATENCY: 209.6 cycles

DRAM Statistics

Channel 0 RQ ROW_BUFFER_HIT:      59226
  ROW_BUFFER_MISS:     112803
 AVG DBUS CONGESTED CYCLE: 3.932
WQ ROW_BUFFER_HIT: Channel 0 
  ROW_BUFFER_MISS:      53853
  FULL:     102140

NOT_BRANCH: 0

BRANCH_DIRECT_JUMP: 16403078

BRANCH_INDIRECT: 1555774

BRANCH_CONDITIONAL: 194400119

BRANCH_DIRECT_CALL: 2643820

BRANCH_INDIRECT_CALL: 0

BRANCH_RETURN: 2643820

BRANCH_OTHER: 0
