WARNING: physical memory size is smaller than virtual memory size.

*** ChampSim Multicore Out-of-Order Simulator ***
Warmup Instructions: 1000000000
Simulation Instructions: 500000000
Number of CPUs: 1
Page size: 4096

Off-chip DRAM Size: 4 GiB Channels: 1 Width: 64-bit Data Race: 3200 MT/s
Heartbeat CPU 0 instructions: 10000002 cycles: 2518535 heartbeat IPC: 3.971 cumulative IPC: 3.971 (Simulation time: 00 hr 00 min 15 sec)
Heartbeat CPU 0 instructions: 20000002 cycles: 5030276 heartbeat IPC: 3.981 cumulative IPC: 3.976 (Simulation time: 00 hr 00 min 31 sec)
Heartbeat CPU 0 instructions: 30000000 cycles: 7556863 heartbeat IPC: 3.958 cumulative IPC: 3.97 (Simulation time: 00 hr 00 min 46 sec)
Heartbeat CPU 0 instructions: 40000001 cycles: 10083474 heartbeat IPC: 3.958 cumulative IPC: 3.967 (Simulation time: 00 hr 01 min 02 sec)
Heartbeat CPU 0 instructions: 50000000 cycles: 12609765 heartbeat IPC: 3.958 cumulative IPC: 3.965 (Simulation time: 00 hr 01 min 19 sec)
Heartbeat CPU 0 instructions: 60000000 cycles: 15138103 heartbeat IPC: 3.955 cumulative IPC: 3.964 (Simulation time: 00 hr 01 min 37 sec)
Heartbeat CPU 0 instructions: 70000001 cycles: 17666634 heartbeat IPC: 3.955 cumulative IPC: 3.962 (Simulation time: 00 hr 01 min 55 sec)
Heartbeat CPU 0 instructions: 80000001 cycles: 20195195 heartbeat IPC: 3.955 cumulative IPC: 3.961 (Simulation time: 00 hr 02 min 12 sec)
Heartbeat CPU 0 instructions: 90000003 cycles: 22723464 heartbeat IPC: 3.955 cumulative IPC: 3.961 (Simulation time: 00 hr 02 min 30 sec)
Heartbeat CPU 0 instructions: 100000003 cycles: 25252879 heartbeat IPC: 3.953 cumulative IPC: 3.96 (Simulation time: 00 hr 02 min 47 sec)
Heartbeat CPU 0 instructions: 110000003 cycles: 27783003 heartbeat IPC: 3.952 cumulative IPC: 3.959 (Simulation time: 00 hr 03 min 04 sec)
Heartbeat CPU 0 instructions: 120000003 cycles: 30313661 heartbeat IPC: 3.952 cumulative IPC: 3.959 (Simulation time: 00 hr 03 min 22 sec)
Heartbeat CPU 0 instructions: 130000002 cycles: 32844600 heartbeat IPC: 3.951 cumulative IPC: 3.958 (Simulation time: 00 hr 03 min 39 sec)
Heartbeat CPU 0 instructions: 140000000 cycles: 35375271 heartbeat IPC: 3.952 cumulative IPC: 3.958 (Simulation time: 00 hr 03 min 57 sec)
Heartbeat CPU 0 instructions: 150000001 cycles: 37904735 heartbeat IPC: 3.953 cumulative IPC: 3.957 (Simulation time: 00 hr 04 min 14 sec)
Heartbeat CPU 0 instructions: 160000000 cycles: 40434570 heartbeat IPC: 3.953 cumulative IPC: 3.957 (Simulation time: 00 hr 04 min 32 sec)
Heartbeat CPU 0 instructions: 170000003 cycles: 42963374 heartbeat IPC: 3.954 cumulative IPC: 3.957 (Simulation time: 00 hr 04 min 49 sec)
Heartbeat CPU 0 instructions: 180000003 cycles: 45493147 heartbeat IPC: 3.953 cumulative IPC: 3.957 (Simulation time: 00 hr 05 min 07 sec)
Heartbeat CPU 0 instructions: 190000002 cycles: 48022236 heartbeat IPC: 3.954 cumulative IPC: 3.957 (Simulation time: 00 hr 05 min 24 sec)
Heartbeat CPU 0 instructions: 200000001 cycles: 50551199 heartbeat IPC: 3.954 cumulative IPC: 3.956 (Simulation time: 00 hr 05 min 42 sec)
Heartbeat CPU 0 instructions: 210000002 cycles: 53080894 heartbeat IPC: 3.953 cumulative IPC: 3.956 (Simulation time: 00 hr 05 min 59 sec)
Heartbeat CPU 0 instructions: 220000002 cycles: 55609697 heartbeat IPC: 3.954 cumulative IPC: 3.956 (Simulation time: 00 hr 06 min 17 sec)
Heartbeat CPU 0 instructions: 230000000 cycles: 58139255 heartbeat IPC: 3.953 cumulative IPC: 3.956 (Simulation time: 00 hr 06 min 34 sec)
Heartbeat CPU 0 instructions: 240000003 cycles: 60668421 heartbeat IPC: 3.954 cumulative IPC: 3.956 (Simulation time: 00 hr 06 min 52 sec)
Heartbeat CPU 0 instructions: 250000002 cycles: 63197528 heartbeat IPC: 3.954 cumulative IPC: 3.956 (Simulation time: 00 hr 07 min 09 sec)
Heartbeat CPU 0 instructions: 260000003 cycles: 65726966 heartbeat IPC: 3.953 cumulative IPC: 3.956 (Simulation time: 00 hr 07 min 27 sec)
Heartbeat CPU 0 instructions: 270000002 cycles: 68255979 heartbeat IPC: 3.954 cumulative IPC: 3.956 (Simulation time: 00 hr 07 min 44 sec)
Heartbeat CPU 0 instructions: 280000001 cycles: 70785262 heartbeat IPC: 3.954 cumulative IPC: 3.956 (Simulation time: 00 hr 08 min 01 sec)
Heartbeat CPU 0 instructions: 290000001 cycles: 73314683 heartbeat IPC: 3.953 cumulative IPC: 3.956 (Simulation time: 00 hr 08 min 19 sec)
Heartbeat CPU 0 instructions: 300000000 cycles: 75843768 heartbeat IPC: 3.954 cumulative IPC: 3.955 (Simulation time: 00 hr 08 min 36 sec)
Heartbeat CPU 0 instructions: 310000000 cycles: 78373116 heartbeat IPC: 3.954 cumulative IPC: 3.955 (Simulation time: 00 hr 08 min 54 sec)
Heartbeat CPU 0 instructions: 320000002 cycles: 80902261 heartbeat IPC: 3.954 cumulative IPC: 3.955 (Simulation time: 00 hr 09 min 11 sec)
Heartbeat CPU 0 instructions: 330000001 cycles: 83431856 heartbeat IPC: 3.953 cumulative IPC: 3.955 (Simulation time: 00 hr 09 min 29 sec)
Heartbeat CPU 0 instructions: 340000001 cycles: 85961559 heartbeat IPC: 3.953 cumulative IPC: 3.955 (Simulation time: 00 hr 09 min 46 sec)
Heartbeat CPU 0 instructions: 350000000 cycles: 88492171 heartbeat IPC: 3.952 cumulative IPC: 3.955 (Simulation time: 00 hr 10 min 04 sec)
Heartbeat CPU 0 instructions: 360000001 cycles: 91023250 heartbeat IPC: 3.951 cumulative IPC: 3.955 (Simulation time: 00 hr 10 min 21 sec)
Heartbeat CPU 0 instructions: 370000002 cycles: 93553828 heartbeat IPC: 3.952 cumulative IPC: 3.955 (Simulation time: 00 hr 10 min 39 sec)
Heartbeat CPU 0 instructions: 380000000 cycles: 96083904 heartbeat IPC: 3.952 cumulative IPC: 3.955 (Simulation time: 00 hr 10 min 56 sec)
Heartbeat CPU 0 instructions: 390000000 cycles: 98612909 heartbeat IPC: 3.954 cumulative IPC: 3.955 (Simulation time: 00 hr 11 min 14 sec)
Heartbeat CPU 0 instructions: 400000003 cycles: 101141576 heartbeat IPC: 3.955 cumulative IPC: 3.955 (Simulation time: 00 hr 11 min 31 sec)
Heartbeat CPU 0 instructions: 410000002 cycles: 103669928 heartbeat IPC: 3.955 cumulative IPC: 3.955 (Simulation time: 00 hr 11 min 49 sec)
Heartbeat CPU 0 instructions: 420000004 cycles: 106198451 heartbeat IPC: 3.955 cumulative IPC: 3.955 (Simulation time: 00 hr 12 min 06 sec)
Heartbeat CPU 0 instructions: 430000001 cycles: 108726451 heartbeat IPC: 3.956 cumulative IPC: 3.955 (Simulation time: 00 hr 12 min 24 sec)
Heartbeat CPU 0 instructions: 440000003 cycles: 111252859 heartbeat IPC: 3.958 cumulative IPC: 3.955 (Simulation time: 00 hr 12 min 41 sec)
Heartbeat CPU 0 instructions: 450000004 cycles: 113779342 heartbeat IPC: 3.958 cumulative IPC: 3.955 (Simulation time: 00 hr 12 min 59 sec)
Heartbeat CPU 0 instructions: 460000001 cycles: 116305877 heartbeat IPC: 3.958 cumulative IPC: 3.955 (Simulation time: 00 hr 13 min 16 sec)
Heartbeat CPU 0 instructions: 470000003 cycles: 118814883 heartbeat IPC: 3.986 cumulative IPC: 3.956 (Simulation time: 00 hr 13 min 35 sec)
Heartbeat CPU 0 instructions: 480000002 cycles: 121337592 heartbeat IPC: 3.964 cumulative IPC: 3.956 (Simulation time: 00 hr 13 min 53 sec)
Heartbeat CPU 0 instructions: 490000001 cycles: 123867602 heartbeat IPC: 3.953 cumulative IPC: 3.956 (Simulation time: 00 hr 14 min 11 sec)
Heartbeat CPU 0 instructions: 500000003 cycles: 126396765 heartbeat IPC: 3.954 cumulative IPC: 3.956 (Simulation time: 00 hr 14 min 28 sec)
Heartbeat CPU 0 instructions: 510000003 cycles: 128924726 heartbeat IPC: 3.956 cumulative IPC: 3.956 (Simulation time: 00 hr 14 min 46 sec)
Heartbeat CPU 0 instructions: 520000001 cycles: 131452926 heartbeat IPC: 3.955 cumulative IPC: 3.956 (Simulation time: 00 hr 15 min 03 sec)
Heartbeat CPU 0 instructions: 530000001 cycles: 133971672 heartbeat IPC: 3.97 cumulative IPC: 3.956 (Simulation time: 00 hr 15 min 21 sec)
Heartbeat CPU 0 instructions: 540000003 cycles: 136489147 heartbeat IPC: 3.972 cumulative IPC: 3.956 (Simulation time: 00 hr 15 min 40 sec)
Heartbeat CPU 0 instructions: 550000003 cycles: 139006711 heartbeat IPC: 3.972 cumulative IPC: 3.957 (Simulation time: 00 hr 15 min 58 sec)
Heartbeat CPU 0 instructions: 560000003 cycles: 141524523 heartbeat IPC: 3.972 cumulative IPC: 3.957 (Simulation time: 00 hr 16 min 16 sec)
Heartbeat CPU 0 instructions: 570000003 cycles: 144042066 heartbeat IPC: 3.972 cumulative IPC: 3.957 (Simulation time: 00 hr 16 min 34 sec)
Heartbeat CPU 0 instructions: 580000003 cycles: 146559623 heartbeat IPC: 3.972 cumulative IPC: 3.957 (Simulation time: 00 hr 16 min 52 sec)
Heartbeat CPU 0 instructions: 590000001 cycles: 149076627 heartbeat IPC: 3.973 cumulative IPC: 3.958 (Simulation time: 00 hr 17 min 10 sec)
Heartbeat CPU 0 instructions: 600000001 cycles: 151593290 heartbeat IPC: 3.974 cumulative IPC: 3.958 (Simulation time: 00 hr 17 min 28 sec)
Heartbeat CPU 0 instructions: 610000001 cycles: 154109953 heartbeat IPC: 3.974 cumulative IPC: 3.958 (Simulation time: 00 hr 17 min 46 sec)
Heartbeat CPU 0 instructions: 620000001 cycles: 156626616 heartbeat IPC: 3.974 cumulative IPC: 3.958 (Simulation time: 00 hr 18 min 04 sec)
Heartbeat CPU 0 instructions: 630000001 cycles: 159143279 heartbeat IPC: 3.974 cumulative IPC: 3.959 (Simulation time: 00 hr 18 min 22 sec)
Heartbeat CPU 0 instructions: 640000002 cycles: 161661568 heartbeat IPC: 3.971 cumulative IPC: 3.959 (Simulation time: 00 hr 18 min 40 sec)
Heartbeat CPU 0 instructions: 650000003 cycles: 164189422 heartbeat IPC: 3.956 cumulative IPC: 3.959 (Simulation time: 00 hr 18 min 58 sec)
Heartbeat CPU 0 instructions: 660000003 cycles: 166718515 heartbeat IPC: 3.954 cumulative IPC: 3.959 (Simulation time: 00 hr 19 min 15 sec)
Heartbeat CPU 0 instructions: 670000003 cycles: 169242818 heartbeat IPC: 3.961 cumulative IPC: 3.959 (Simulation time: 00 hr 19 min 33 sec)
Heartbeat CPU 0 instructions: 680000003 cycles: 171772855 heartbeat IPC: 3.953 cumulative IPC: 3.959 (Simulation time: 00 hr 19 min 50 sec)
Heartbeat CPU 0 instructions: 690000001 cycles: 174303273 heartbeat IPC: 3.952 cumulative IPC: 3.959 (Simulation time: 00 hr 20 min 08 sec)
Heartbeat CPU 0 instructions: 700000003 cycles: 176833692 heartbeat IPC: 3.952 cumulative IPC: 3.959 (Simulation time: 00 hr 20 min 25 sec)
Heartbeat CPU 0 instructions: 710000000 cycles: 179364012 heartbeat IPC: 3.952 cumulative IPC: 3.958 (Simulation time: 00 hr 20 min 42 sec)
Heartbeat CPU 0 instructions: 720000001 cycles: 181892680 heartbeat IPC: 3.955 cumulative IPC: 3.958 (Simulation time: 00 hr 21 min 00 sec)
Heartbeat CPU 0 instructions: 730000003 cycles: 184398955 heartbeat IPC: 3.99 cumulative IPC: 3.959 (Simulation time: 00 hr 21 min 19 sec)
Heartbeat CPU 0 instructions: 740000000 cycles: 186925360 heartbeat IPC: 3.958 cumulative IPC: 3.959 (Simulation time: 00 hr 21 min 37 sec)
Heartbeat CPU 0 instructions: 750000001 cycles: 189456273 heartbeat IPC: 3.951 cumulative IPC: 3.959 (Simulation time: 00 hr 21 min 55 sec)
Heartbeat CPU 0 instructions: 760000001 cycles: 191986918 heartbeat IPC: 3.952 cumulative IPC: 3.959 (Simulation time: 00 hr 22 min 12 sec)
Heartbeat CPU 0 instructions: 770000000 cycles: 194517851 heartbeat IPC: 3.951 cumulative IPC: 3.959 (Simulation time: 00 hr 22 min 29 sec)
Heartbeat CPU 0 instructions: 780000001 cycles: 197047770 heartbeat IPC: 3.953 cumulative IPC: 3.958 (Simulation time: 00 hr 22 min 47 sec)
Heartbeat CPU 0 instructions: 790000000 cycles: 199577549 heartbeat IPC: 3.953 cumulative IPC: 3.958 (Simulation time: 00 hr 23 min 04 sec)
Heartbeat CPU 0 instructions: 800000003 cycles: 202104232 heartbeat IPC: 3.958 cumulative IPC: 3.958 (Simulation time: 00 hr 23 min 22 sec)
Heartbeat CPU 0 instructions: 810000001 cycles: 204627581 heartbeat IPC: 3.963 cumulative IPC: 3.958 (Simulation time: 00 hr 23 min 40 sec)
Heartbeat CPU 0 instructions: 820000000 cycles: 207149929 heartbeat IPC: 3.965 cumulative IPC: 3.958 (Simulation time: 00 hr 23 min 58 sec)
Heartbeat CPU 0 instructions: 830000001 cycles: 209676429 heartbeat IPC: 3.958 cumulative IPC: 3.958 (Simulation time: 00 hr 24 min 15 sec)
Heartbeat CPU 0 instructions: 840000000 cycles: 212202889 heartbeat IPC: 3.958 cumulative IPC: 3.958 (Simulation time: 00 hr 24 min 33 sec)
Heartbeat CPU 0 instructions: 850000001 cycles: 214729389 heartbeat IPC: 3.958 cumulative IPC: 3.958 (Simulation time: 00 hr 24 min 51 sec)
Heartbeat CPU 0 instructions: 860000000 cycles: 217255889 heartbeat IPC: 3.958 cumulative IPC: 3.958 (Simulation time: 00 hr 25 min 09 sec)
Heartbeat CPU 0 instructions: 870000001 cycles: 219782389 heartbeat IPC: 3.958 cumulative IPC: 3.958 (Simulation time: 00 hr 25 min 26 sec)
Heartbeat CPU 0 instructions: 880000002 cycles: 222308889 heartbeat IPC: 3.958 cumulative IPC: 3.958 (Simulation time: 00 hr 25 min 44 sec)
Heartbeat CPU 0 instructions: 890000001 cycles: 224835349 heartbeat IPC: 3.958 cumulative IPC: 3.958 (Simulation time: 00 hr 26 min 02 sec)
Heartbeat CPU 0 instructions: 900000001 cycles: 227361797 heartbeat IPC: 3.958 cumulative IPC: 3.958 (Simulation time: 00 hr 26 min 19 sec)
Heartbeat CPU 0 instructions: 910000003 cycles: 229888245 heartbeat IPC: 3.958 cumulative IPC: 3.958 (Simulation time: 00 hr 26 min 37 sec)
Heartbeat CPU 0 instructions: 920000002 cycles: 232414697 heartbeat IPC: 3.958 cumulative IPC: 3.958 (Simulation time: 00 hr 26 min 55 sec)
Heartbeat CPU 0 instructions: 930000001 cycles: 234934765 heartbeat IPC: 3.968 cumulative IPC: 3.959 (Simulation time: 00 hr 27 min 13 sec)
Heartbeat CPU 0 instructions: 940000000 cycles: 237461465 heartbeat IPC: 3.958 cumulative IPC: 3.959 (Simulation time: 00 hr 27 min 30 sec)
Heartbeat CPU 0 instructions: 950000000 cycles: 239987134 heartbeat IPC: 3.959 cumulative IPC: 3.959 (Simulation time: 00 hr 27 min 57 sec)
Heartbeat CPU 0 instructions: 960000000 cycles: 242514117 heartbeat IPC: 3.957 cumulative IPC: 3.959 (Simulation time: 00 hr 28 min 18 sec)
Heartbeat CPU 0 instructions: 970000001 cycles: 245044297 heartbeat IPC: 3.952 cumulative IPC: 3.958 (Simulation time: 00 hr 28 min 51 sec)
Heartbeat CPU 0 instructions: 980000002 cycles: 247574910 heartbeat IPC: 3.952 cumulative IPC: 3.958 (Simulation time: 00 hr 29 min 24 sec)
Heartbeat CPU 0 instructions: 990000001 cycles: 250105782 heartbeat IPC: 3.951 cumulative IPC: 3.958 (Simulation time: 00 hr 29 min 57 sec)
Heartbeat CPU 0 instructions: 1000000002 cycles: 252636547 heartbeat IPC: 3.951 cumulative IPC: 3.958 (Simulation time: 00 hr 30 min 30 sec)
Warmup finished CPU 0 instructions: 1000000002 cycles: 252636548 cumulative IPC: 3.958 (Simulation time: 00 hr 30 min 30 sec)
Warmup complete CPU 0 instructions: 1000000002 cycles: 252636548 cumulative IPC: 3.958 (Simulation time: 00 hr 30 min 30 sec)
Heartbeat CPU 0 instructions: 1010000000 cycles: 256702597 heartbeat IPC: 2.459 cumulative IPC: 2.459 (Simulation time: 00 hr 31 min 20 sec)
Heartbeat CPU 0 instructions: 1020000004 cycles: 261688186 heartbeat IPC: 2.006 cumulative IPC: 2.21 (Simulation time: 00 hr 32 min 22 sec)
Heartbeat CPU 0 instructions: 1030000002 cycles: 264980355 heartbeat IPC: 3.038 cumulative IPC: 2.43 (Simulation time: 00 hr 33 min 03 sec)
Heartbeat CPU 0 instructions: 1040000003 cycles: 268269930 heartbeat IPC: 3.04 cumulative IPC: 2.559 (Simulation time: 00 hr 33 min 45 sec)
Heartbeat CPU 0 instructions: 1050000000 cycles: 271561312 heartbeat IPC: 3.038 cumulative IPC: 2.642 (Simulation time: 00 hr 34 min 27 sec)
Heartbeat CPU 0 instructions: 1060000003 cycles: 274958859 heartbeat IPC: 2.943 cumulative IPC: 2.688 (Simulation time: 00 hr 35 min 09 sec)
Heartbeat CPU 0 instructions: 1070000002 cycles: 278328686 heartbeat IPC: 2.968 cumulative IPC: 2.725 (Simulation time: 00 hr 35 min 51 sec)
Heartbeat CPU 0 instructions: 1080000000 cycles: 281674351 heartbeat IPC: 2.989 cumulative IPC: 2.755 (Simulation time: 00 hr 36 min 33 sec)
Heartbeat CPU 0 instructions: 1090000000 cycles: 285011264 heartbeat IPC: 2.997 cumulative IPC: 2.78 (Simulation time: 00 hr 37 min 08 sec)
Heartbeat CPU 0 instructions: 1100000003 cycles: 288353184 heartbeat IPC: 2.992 cumulative IPC: 2.8 (Simulation time: 00 hr 37 min 43 sec)
Heartbeat CPU 0 instructions: 1110000001 cycles: 291702296 heartbeat IPC: 2.986 cumulative IPC: 2.816 (Simulation time: 00 hr 38 min 10 sec)
Heartbeat CPU 0 instructions: 1120000002 cycles: 295064940 heartbeat IPC: 2.974 cumulative IPC: 2.828 (Simulation time: 00 hr 38 min 52 sec)
Heartbeat CPU 0 instructions: 1130000002 cycles: 298388313 heartbeat IPC: 3.009 cumulative IPC: 2.841 (Simulation time: 00 hr 39 min 34 sec)
Heartbeat CPU 0 instructions: 1140000001 cycles: 301730782 heartbeat IPC: 2.992 cumulative IPC: 2.852 (Simulation time: 00 hr 40 min 10 sec)
Heartbeat CPU 0 instructions: 1150000000 cycles: 305094396 heartbeat IPC: 2.973 cumulative IPC: 2.859 (Simulation time: 00 hr 40 min 33 sec)
Heartbeat CPU 0 instructions: 1160000000 cycles: 308434172 heartbeat IPC: 2.994 cumulative IPC: 2.868 (Simulation time: 00 hr 40 min 57 sec)
Heartbeat CPU 0 instructions: 1170000001 cycles: 311799434 heartbeat IPC: 2.972 cumulative IPC: 2.873 (Simulation time: 00 hr 41 min 21 sec)
Heartbeat CPU 0 instructions: 1180000000 cycles: 315137406 heartbeat IPC: 2.996 cumulative IPC: 2.88 (Simulation time: 00 hr 41 min 44 sec)
Heartbeat CPU 0 instructions: 1190000002 cycles: 318501314 heartbeat IPC: 2.973 cumulative IPC: 2.885 (Simulation time: 00 hr 42 min 08 sec)
Heartbeat CPU 0 instructions: 1200000004 cycles: 321839554 heartbeat IPC: 2.996 cumulative IPC: 2.89 (Simulation time: 00 hr 42 min 32 sec)
Heartbeat CPU 0 instructions: 1210000001 cycles: 325180866 heartbeat IPC: 2.993 cumulative IPC: 2.895 (Simulation time: 00 hr 42 min 56 sec)
Heartbeat CPU 0 instructions: 1220000003 cycles: 328540814 heartbeat IPC: 2.976 cumulative IPC: 2.898 (Simulation time: 00 hr 43 min 21 sec)
Heartbeat CPU 0 instructions: 1230000001 cycles: 331878719 heartbeat IPC: 2.996 cumulative IPC: 2.902 (Simulation time: 00 hr 43 min 44 sec)
Heartbeat CPU 0 instructions: 1240000004 cycles: 335240033 heartbeat IPC: 2.975 cumulative IPC: 2.905 (Simulation time: 00 hr 44 min 07 sec)
Heartbeat CPU 0 instructions: 1250000004 cycles: 338562825 heartbeat IPC: 3.01 cumulative IPC: 2.909 (Simulation time: 00 hr 44 min 30 sec)
Heartbeat CPU 0 instructions: 1260000001 cycles: 341911675 heartbeat IPC: 2.986 cumulative IPC: 2.912 (Simulation time: 00 hr 45 min 05 sec)
Heartbeat CPU 0 instructions: 1270000002 cycles: 345272024 heartbeat IPC: 2.976 cumulative IPC: 2.915 (Simulation time: 00 hr 45 min 47 sec)
Heartbeat CPU 0 instructions: 1280000000 cycles: 348599566 heartbeat IPC: 3.005 cumulative IPC: 2.918 (Simulation time: 00 hr 46 min 29 sec)
Heartbeat CPU 0 instructions: 1290000002 cycles: 351977893 heartbeat IPC: 2.96 cumulative IPC: 2.919 (Simulation time: 00 hr 47 min 11 sec)
Heartbeat CPU 0 instructions: 1300000001 cycles: 355323772 heartbeat IPC: 2.989 cumulative IPC: 2.921 (Simulation time: 00 hr 47 min 54 sec)
Heartbeat CPU 0 instructions: 1310000004 cycles: 358689406 heartbeat IPC: 2.971 cumulative IPC: 2.923 (Simulation time: 00 hr 48 min 36 sec)
Heartbeat CPU 0 instructions: 1320000000 cycles: 362092085 heartbeat IPC: 2.939 cumulative IPC: 2.924 (Simulation time: 00 hr 49 min 01 sec)
Heartbeat CPU 0 instructions: 1330000000 cycles: 365384539 heartbeat IPC: 3.037 cumulative IPC: 2.927 (Simulation time: 00 hr 49 min 24 sec)
Heartbeat CPU 0 instructions: 1340000004 cycles: 368673904 heartbeat IPC: 3.04 cumulative IPC: 2.93 (Simulation time: 00 hr 49 min 46 sec)
Heartbeat CPU 0 instructions: 1350000002 cycles: 371966548 heartbeat IPC: 3.037 cumulative IPC: 2.933 (Simulation time: 00 hr 50 min 08 sec)
Heartbeat CPU 0 instructions: 1360000004 cycles: 376319815 heartbeat IPC: 2.297 cumulative IPC: 2.911 (Simulation time: 00 hr 50 min 38 sec)
Heartbeat CPU 0 instructions: 1370000004 cycles: 380922406 heartbeat IPC: 2.173 cumulative IPC: 2.884 (Simulation time: 00 hr 51 min 12 sec)
Heartbeat CPU 0 instructions: 1380000000 cycles: 384255091 heartbeat IPC: 3.001 cumulative IPC: 2.887 (Simulation time: 00 hr 51 min 53 sec)
Heartbeat CPU 0 instructions: 1390000002 cycles: 387587603 heartbeat IPC: 3.001 cumulative IPC: 2.89 (Simulation time: 00 hr 52 min 34 sec)
Heartbeat CPU 0 instructions: 1400000004 cycles: 390921234 heartbeat IPC: 3 cumulative IPC: 2.893 (Simulation time: 00 hr 53 min 16 sec)
Heartbeat CPU 0 instructions: 1410000004 cycles: 394268454 heartbeat IPC: 2.988 cumulative IPC: 2.895 (Simulation time: 00 hr 53 min 56 sec)
Heartbeat CPU 0 instructions: 1420000002 cycles: 397593998 heartbeat IPC: 3.007 cumulative IPC: 2.897 (Simulation time: 00 hr 54 min 38 sec)
Heartbeat CPU 0 instructions: 1430000000 cycles: 400918845 heartbeat IPC: 3.008 cumulative IPC: 2.9 (Simulation time: 00 hr 55 min 20 sec)
Heartbeat CPU 0 instructions: 1440000000 cycles: 404242186 heartbeat IPC: 3.009 cumulative IPC: 2.902 (Simulation time: 00 hr 56 min 02 sec)
Heartbeat CPU 0 instructions: 1450000002 cycles: 407591656 heartbeat IPC: 2.986 cumulative IPC: 2.904 (Simulation time: 00 hr 56 min 45 sec)
Heartbeat CPU 0 instructions: 1460000003 cycles: 410905286 heartbeat IPC: 3.018 cumulative IPC: 2.906 (Simulation time: 00 hr 57 min 27 sec)
Heartbeat CPU 0 instructions: 1470000000 cycles: 414239739 heartbeat IPC: 2.999 cumulative IPC: 2.908 (Simulation time: 00 hr 57 min 53 sec)
Heartbeat CPU 0 instructions: 1480000000 cycles: 417580891 heartbeat IPC: 2.993 cumulative IPC: 2.91 (Simulation time: 00 hr 58 min 30 sec)
Heartbeat CPU 0 instructions: 1490000002 cycles: 420923542 heartbeat IPC: 2.992 cumulative IPC: 2.912 (Simulation time: 00 hr 58 min 56 sec)
Heartbeat CPU 0 instructions: 1500000000 cycles: 424252303 heartbeat IPC: 3.004 cumulative IPC: 2.913 (Simulation time: 00 hr 59 min 20 sec)
Simulation finished CPU 0 instructions: 500000003 cycles: 171615757 cumulative IPC: 2.913 (Simulation time: 00 hr 59 min 20 sec)
Simulation complete CPU 0 instructions: 500000003 cycles: 171615757 cumulative IPC: 2.913 (Simulation time: 00 hr 59 min 20 sec)

ChampSim completed all CPUs

=== Simulation ===
CPU 0 runs traces/603.bwaves_s-1080B.champsimtrace.xz
Region of Interest Statistics

CPU 0 cumulative IPC: 2.913 instructions: 500000003 cycles: 171615757
CPU 0 Branch Prediction Accuracy: 95.83% MPKI: 6.05 Average ROB Occupancy at Mispredict: 47.09
Branch type MPKI
BRANCH_DIRECT_JUMP: 0.186
BRANCH_INDIRECT: 0
BRANCH_CONDITIONAL: 5.73
BRANCH_DIRECT_CALL: 0
BRANCH_INDIRECT_CALL: 0
BRANCH_RETURN: 0.131

LLC TOTAL        ACCESS:     328057 HIT:     156011 MISS:     172046
LLC LOAD         ACCESS:      15729 HIT:         11 MISS:      15718
LLC RFO          ACCESS:     156302 HIT:         15 MISS:     156287
LLC PREFETCH     ACCESS:          0 HIT:          0 MISS:          0
LLC WRITE        ACCESS:     156005 HIT:     155982 MISS:         23
LLC TRANSLATION  ACCESS:         21 HIT:          3 MISS:         18
LLC PREFETCH REQUESTED:          0 ISSUED:          0 USEFUL:          0 USELESS:          0
LLC AVERAGE MISS LATENCY: 407.6 cycles
cpu0_DTLB TOTAL        ACCESS:   80981665 HIT:   80957693 MISS:      23972
cpu0_DTLB LOAD         ACCESS:   80981665 HIT:   80957693 MISS:      23972
cpu0_DTLB RFO          ACCESS:          0 HIT:          0 MISS:          0
cpu0_DTLB PREFETCH     ACCESS:          0 HIT:          0 MISS:          0
cpu0_DTLB WRITE        ACCESS:          0 HIT:          0 MISS:          0
cpu0_DTLB TRANSLATION  ACCESS:          0 HIT:          0 MISS:          0
cpu0_DTLB PREFETCH REQUESTED:          0 ISSUED:          0 USEFUL:          0 USELESS:          0
cpu0_DTLB AVERAGE MISS LATENCY: 19.66 cycles
cpu0_ITLB TOTAL        ACCESS:    1898162 HIT:    1898162 MISS:          0
cpu0_ITLB LOAD         ACCESS:    1898162 HIT:    1898162 MISS:          0
cpu0_ITLB RFO          ACCESS:          0 HIT:          0 MISS:          0
cpu0_ITLB PREFETCH     ACCESS:          0 HIT:          0 MISS:          0
cpu0_ITLB WRITE        ACCESS:          0 HIT:          0 MISS:          0
cpu0_ITLB TRANSLATION  ACCESS:          0 HIT:          0 MISS:          0
cpu0_ITLB PREFETCH REQUESTED:          0 ISSUED:          0 USEFUL:          0 USELESS:          0
cpu0_ITLB AVERAGE MISS LATENCY: -nan cycles
cpu0_L1D TOTAL        ACCESS:  125182990 HIT:  123990978 MISS:    1192012
cpu0_L1D LOAD         ACCESS:  104057598 HIT:  104014305 MISS:      43293
cpu0_L1D RFO          ACCESS:          0 HIT:          0 MISS:          0
cpu0_L1D PREFETCH     ACCESS:          0 HIT:          0 MISS:          0
cpu0_L1D WRITE        ACCESS:   21122696 HIT:   19974242 MISS:    1148454
cpu0_L1D TRANSLATION  ACCESS:       2696 HIT:       2431 MISS:        265
cpu0_L1D PREFETCH REQUESTED:          0 ISSUED:          0 USEFUL:          0 USELESS:          0
cpu0_L1D AVERAGE MISS LATENCY: 59.07 cycles
cpu0_L1I TOTAL        ACCESS:    2197651 HIT:    2197651 MISS:          0
cpu0_L1I LOAD         ACCESS:    2197651 HIT:    2197651 MISS:          0
cpu0_L1I RFO          ACCESS:          0 HIT:          0 MISS:          0
cpu0_L1I PREFETCH     ACCESS:          0 HIT:          0 MISS:          0
cpu0_L1I WRITE        ACCESS:          0 HIT:          0 MISS:          0
cpu0_L1I TRANSLATION  ACCESS:          0 HIT:          0 MISS:          0
cpu0_L1I PREFETCH REQUESTED:          0 ISSUED:          0 USEFUL:          0 USELESS:          0
cpu0_L1I AVERAGE MISS LATENCY: -nan cycles
cpu0_L2C TOTAL        ACCESS:     331674 HIT:     159601 MISS:     172073
cpu0_L2C LOAD         ACCESS:      16952 HIT:       1223 MISS:      15729
cpu0_L2C RFO          ACCESS:     157516 HIT:       1214 MISS:     156302
cpu0_L2C PREFETCH     ACCESS:          0 HIT:          0 MISS:          0
cpu0_L2C WRITE        ACCESS:     156941 HIT:     156920 MISS:         21
cpu0_L2C TRANSLATION  ACCESS:        265 HIT:        244 MISS:         21
cpu0_L2C PREFETCH REQUESTED:          0 ISSUED:          0 USEFUL:          0 USELESS:          0
cpu0_L2C AVERAGE MISS LATENCY: 428.5 cycles
cpu0_STLB TOTAL        ACCESS:       2813 HIT:        122 MISS:       2691
cpu0_STLB LOAD         ACCESS:       2813 HIT:        122 MISS:       2691
cpu0_STLB RFO          ACCESS:          0 HIT:          0 MISS:          0
cpu0_STLB PREFETCH     ACCESS:          0 HIT:          0 MISS:          0
cpu0_STLB WRITE        ACCESS:          0 HIT:          0 MISS:          0
cpu0_STLB TRANSLATION  ACCESS:          0 HIT:          0 MISS:          0
cpu0_STLB PREFETCH REQUESTED:          0 ISSUED:          0 USEFUL:          0 USELESS:          0
cpu0_STLB AVERAGE MISS LATENCY: 209.9 cycles

DRAM Statistics

Channel 0 RQ ROW_BUFFER_HIT:      59610
  ROW_BUFFER_MISS:     112413
 AVG DBUS CONGESTED CYCLE: 3.931
WQ ROW_BUFFER_HIT: Channel 0 
  ROW_BUFFER_MISS:      55019
  FULL:     100973
