WARNING: physical memory size is smaller than virtual memory size.

*** ChampSim Multicore Out-of-Order Simulator ***
Warmup Instructions: 1000000000
Simulation Instructions: 500000000
Number of CPUs: 1
Page size: 4096

Off-chip DRAM Size: 4 GiB Channels: 1 Width: 64-bit Data Race: 3200 MT/s
Heartbeat CPU 0 instructions: 10000002 cycles: 2521287 heartbeat IPC: 3.966 cumulative IPC: 3.966 (Simulation time: 00 hr 00 min 26 sec)
Heartbeat CPU 0 instructions: 20000002 cycles: 5034823 heartbeat IPC: 3.978 cumulative IPC: 3.972 (Simulation time: 00 hr 01 min 02 sec)
Heartbeat CPU 0 instructions: 30000000 cycles: 7565429 heartbeat IPC: 3.952 cumulative IPC: 3.965 (Simulation time: 00 hr 01 min 35 sec)
Heartbeat CPU 0 instructions: 40000001 cycles: 10096071 heartbeat IPC: 3.952 cumulative IPC: 3.962 (Simulation time: 00 hr 02 min 09 sec)
Heartbeat CPU 0 instructions: 50000000 cycles: 12626334 heartbeat IPC: 3.952 cumulative IPC: 3.96 (Simulation time: 00 hr 02 min 42 sec)
Heartbeat CPU 0 instructions: 60000000 cycles: 15158723 heartbeat IPC: 3.949 cumulative IPC: 3.958 (Simulation time: 00 hr 03 min 16 sec)
Heartbeat CPU 0 instructions: 70000001 cycles: 17691348 heartbeat IPC: 3.948 cumulative IPC: 3.957 (Simulation time: 00 hr 03 min 49 sec)
Heartbeat CPU 0 instructions: 80000001 cycles: 20223982 heartbeat IPC: 3.948 cumulative IPC: 3.956 (Simulation time: 00 hr 04 min 22 sec)
Heartbeat CPU 0 instructions: 90000003 cycles: 22756300 heartbeat IPC: 3.949 cumulative IPC: 3.955 (Simulation time: 00 hr 04 min 56 sec)
Heartbeat CPU 0 instructions: 100000003 cycles: 25289849 heartbeat IPC: 3.947 cumulative IPC: 3.954 (Simulation time: 00 hr 05 min 24 sec)
Heartbeat CPU 0 instructions: 110000003 cycles: 27824151 heartbeat IPC: 3.946 cumulative IPC: 3.953 (Simulation time: 00 hr 05 min 42 sec)
Heartbeat CPU 0 instructions: 120000003 cycles: 30359051 heartbeat IPC: 3.945 cumulative IPC: 3.953 (Simulation time: 00 hr 06 min 00 sec)
Heartbeat CPU 0 instructions: 130000002 cycles: 32894261 heartbeat IPC: 3.944 cumulative IPC: 3.952 (Simulation time: 00 hr 06 min 18 sec)
Heartbeat CPU 0 instructions: 140000000 cycles: 35429157 heartbeat IPC: 3.945 cumulative IPC: 3.952 (Simulation time: 00 hr 06 min 35 sec)
Heartbeat CPU 0 instructions: 150000001 cycles: 37962745 heartbeat IPC: 3.947 cumulative IPC: 3.951 (Simulation time: 00 hr 06 min 53 sec)
Heartbeat CPU 0 instructions: 160000000 cycles: 40496722 heartbeat IPC: 3.946 cumulative IPC: 3.951 (Simulation time: 00 hr 07 min 11 sec)
Heartbeat CPU 0 instructions: 170000003 cycles: 43029564 heartbeat IPC: 3.948 cumulative IPC: 3.951 (Simulation time: 00 hr 07 min 29 sec)
Heartbeat CPU 0 instructions: 180000003 cycles: 45563462 heartbeat IPC: 3.946 cumulative IPC: 3.951 (Simulation time: 00 hr 07 min 46 sec)
Heartbeat CPU 0 instructions: 190000002 cycles: 48096602 heartbeat IPC: 3.948 cumulative IPC: 3.95 (Simulation time: 00 hr 08 min 04 sec)
Heartbeat CPU 0 instructions: 200000001 cycles: 50629613 heartbeat IPC: 3.948 cumulative IPC: 3.95 (Simulation time: 00 hr 08 min 22 sec)
Heartbeat CPU 0 instructions: 210000002 cycles: 53163416 heartbeat IPC: 3.947 cumulative IPC: 3.95 (Simulation time: 00 hr 08 min 40 sec)
Heartbeat CPU 0 instructions: 220000002 cycles: 55696250 heartbeat IPC: 3.948 cumulative IPC: 3.95 (Simulation time: 00 hr 08 min 58 sec)
Heartbeat CPU 0 instructions: 230000000 cycles: 58229924 heartbeat IPC: 3.947 cumulative IPC: 3.95 (Simulation time: 00 hr 09 min 15 sec)
Heartbeat CPU 0 instructions: 240000003 cycles: 60763161 heartbeat IPC: 3.948 cumulative IPC: 3.95 (Simulation time: 00 hr 09 min 33 sec)
Heartbeat CPU 0 instructions: 250000002 cycles: 63296325 heartbeat IPC: 3.948 cumulative IPC: 3.95 (Simulation time: 00 hr 09 min 51 sec)
Heartbeat CPU 0 instructions: 260000003 cycles: 65829847 heartbeat IPC: 3.947 cumulative IPC: 3.95 (Simulation time: 00 hr 10 min 09 sec)
Heartbeat CPU 0 instructions: 270000002 cycles: 68362910 heartbeat IPC: 3.948 cumulative IPC: 3.95 (Simulation time: 00 hr 10 min 27 sec)
Heartbeat CPU 0 instructions: 280000001 cycles: 70896276 heartbeat IPC: 3.947 cumulative IPC: 3.949 (Simulation time: 00 hr 10 min 51 sec)
Heartbeat CPU 0 instructions: 290000001 cycles: 73429783 heartbeat IPC: 3.947 cumulative IPC: 3.949 (Simulation time: 00 hr 11 min 25 sec)
Heartbeat CPU 0 instructions: 300000000 cycles: 75962921 heartbeat IPC: 3.948 cumulative IPC: 3.949 (Simulation time: 00 hr 11 min 48 sec)
Heartbeat CPU 0 instructions: 310000000 cycles: 78496339 heartbeat IPC: 3.947 cumulative IPC: 3.949 (Simulation time: 00 hr 12 min 09 sec)
Heartbeat CPU 0 instructions: 320000002 cycles: 81029527 heartbeat IPC: 3.948 cumulative IPC: 3.949 (Simulation time: 00 hr 12 min 36 sec)
Heartbeat CPU 0 instructions: 330000001 cycles: 83563238 heartbeat IPC: 3.947 cumulative IPC: 3.949 (Simulation time: 00 hr 12 min 55 sec)
Heartbeat CPU 0 instructions: 340000001 cycles: 86097046 heartbeat IPC: 3.947 cumulative IPC: 3.949 (Simulation time: 00 hr 13 min 28 sec)
Heartbeat CPU 0 instructions: 350000000 cycles: 88631871 heartbeat IPC: 3.945 cumulative IPC: 3.949 (Simulation time: 00 hr 14 min 01 sec)
Heartbeat CPU 0 instructions: 360000001 cycles: 91167184 heartbeat IPC: 3.944 cumulative IPC: 3.949 (Simulation time: 00 hr 14 min 34 sec)
Heartbeat CPU 0 instructions: 370000002 cycles: 93701956 heartbeat IPC: 3.945 cumulative IPC: 3.949 (Simulation time: 00 hr 15 min 08 sec)
Heartbeat CPU 0 instructions: 380000000 cycles: 96236203 heartbeat IPC: 3.946 cumulative IPC: 3.949 (Simulation time: 00 hr 15 min 41 sec)
Heartbeat CPU 0 instructions: 390000000 cycles: 98769258 heartbeat IPC: 3.948 cumulative IPC: 3.949 (Simulation time: 00 hr 16 min 14 sec)
Heartbeat CPU 0 instructions: 400000003 cycles: 101301969 heartbeat IPC: 3.948 cumulative IPC: 3.949 (Simulation time: 00 hr 16 min 48 sec)
Heartbeat CPU 0 instructions: 410000002 cycles: 103834350 heartbeat IPC: 3.949 cumulative IPC: 3.949 (Simulation time: 00 hr 17 min 21 sec)
Heartbeat CPU 0 instructions: 420000004 cycles: 106366916 heartbeat IPC: 3.949 cumulative IPC: 3.949 (Simulation time: 00 hr 17 min 54 sec)
Heartbeat CPU 0 instructions: 430000001 cycles: 108898885 heartbeat IPC: 3.949 cumulative IPC: 3.949 (Simulation time: 00 hr 18 min 28 sec)
Heartbeat CPU 0 instructions: 440000003 cycles: 111429234 heartbeat IPC: 3.952 cumulative IPC: 3.949 (Simulation time: 00 hr 19 min 01 sec)
Heartbeat CPU 0 instructions: 450000004 cycles: 113959679 heartbeat IPC: 3.952 cumulative IPC: 3.949 (Simulation time: 00 hr 19 min 23 sec)
Heartbeat CPU 0 instructions: 460000001 cycles: 116490178 heartbeat IPC: 3.952 cumulative IPC: 3.949 (Simulation time: 00 hr 19 min 41 sec)
Heartbeat CPU 0 instructions: 470000003 cycles: 119000549 heartbeat IPC: 3.983 cumulative IPC: 3.95 (Simulation time: 00 hr 20 min 00 sec)
Heartbeat CPU 0 instructions: 480000002 cycles: 121526505 heartbeat IPC: 3.959 cumulative IPC: 3.95 (Simulation time: 00 hr 20 min 19 sec)
Heartbeat CPU 0 instructions: 490000001 cycles: 124060644 heartbeat IPC: 3.946 cumulative IPC: 3.95 (Simulation time: 00 hr 20 min 37 sec)
Heartbeat CPU 0 instructions: 500000003 cycles: 126593856 heartbeat IPC: 3.948 cumulative IPC: 3.95 (Simulation time: 00 hr 20 min 55 sec)
Heartbeat CPU 0 instructions: 510000003 cycles: 129125702 heartbeat IPC: 3.95 cumulative IPC: 3.95 (Simulation time: 00 hr 21 min 13 sec)
Heartbeat CPU 0 instructions: 520000001 cycles: 131657802 heartbeat IPC: 3.949 cumulative IPC: 3.95 (Simulation time: 00 hr 21 min 31 sec)
Heartbeat CPU 0 instructions: 530000001 cycles: 134179192 heartbeat IPC: 3.966 cumulative IPC: 3.95 (Simulation time: 00 hr 21 min 49 sec)
Heartbeat CPU 0 instructions: 540000003 cycles: 136699138 heartbeat IPC: 3.968 cumulative IPC: 3.95 (Simulation time: 00 hr 22 min 08 sec)
Heartbeat CPU 0 instructions: 550000003 cycles: 139219193 heartbeat IPC: 3.968 cumulative IPC: 3.951 (Simulation time: 00 hr 22 min 26 sec)
Heartbeat CPU 0 instructions: 560000003 cycles: 141739514 heartbeat IPC: 3.968 cumulative IPC: 3.951 (Simulation time: 00 hr 22 min 45 sec)
Heartbeat CPU 0 instructions: 570000003 cycles: 144259526 heartbeat IPC: 3.968 cumulative IPC: 3.951 (Simulation time: 00 hr 23 min 04 sec)
Heartbeat CPU 0 instructions: 580000003 cycles: 146779580 heartbeat IPC: 3.968 cumulative IPC: 3.952 (Simulation time: 00 hr 23 min 24 sec)
Heartbeat CPU 0 instructions: 590000001 cycles: 149298979 heartbeat IPC: 3.969 cumulative IPC: 3.952 (Simulation time: 00 hr 23 min 43 sec)
Heartbeat CPU 0 instructions: 600000001 cycles: 151818005 heartbeat IPC: 3.97 cumulative IPC: 3.952 (Simulation time: 00 hr 24 min 02 sec)
Heartbeat CPU 0 instructions: 610000001 cycles: 154337027 heartbeat IPC: 3.97 cumulative IPC: 3.952 (Simulation time: 00 hr 24 min 21 sec)
Heartbeat CPU 0 instructions: 620000001 cycles: 156856034 heartbeat IPC: 3.97 cumulative IPC: 3.953 (Simulation time: 00 hr 24 min 39 sec)
Heartbeat CPU 0 instructions: 630000001 cycles: 159375055 heartbeat IPC: 3.97 cumulative IPC: 3.953 (Simulation time: 00 hr 24 min 58 sec)
Heartbeat CPU 0 instructions: 640000002 cycles: 161895916 heartbeat IPC: 3.967 cumulative IPC: 3.953 (Simulation time: 00 hr 25 min 16 sec)
Heartbeat CPU 0 instructions: 650000003 cycles: 164427659 heartbeat IPC: 3.95 cumulative IPC: 3.953 (Simulation time: 00 hr 25 min 34 sec)
Heartbeat CPU 0 instructions: 660000003 cycles: 166960769 heartbeat IPC: 3.948 cumulative IPC: 3.953 (Simulation time: 00 hr 25 min 52 sec)
Heartbeat CPU 0 instructions: 670000003 cycles: 169488429 heartbeat IPC: 3.956 cumulative IPC: 3.953 (Simulation time: 00 hr 26 min 10 sec)
Heartbeat CPU 0 instructions: 680000003 cycles: 172022609 heartbeat IPC: 3.946 cumulative IPC: 3.953 (Simulation time: 00 hr 26 min 28 sec)
Heartbeat CPU 0 instructions: 690000001 cycles: 174557228 heartbeat IPC: 3.945 cumulative IPC: 3.953 (Simulation time: 00 hr 26 min 46 sec)
Heartbeat CPU 0 instructions: 700000000 cycles: 177091846 heartbeat IPC: 3.945 cumulative IPC: 3.953 (Simulation time: 00 hr 27 min 04 sec)
Heartbeat CPU 0 instructions: 710000000 cycles: 179626373 heartbeat IPC: 3.946 cumulative IPC: 3.953 (Simulation time: 00 hr 27 min 22 sec)
Heartbeat CPU 0 instructions: 720000001 cycles: 182159036 heartbeat IPC: 3.948 cumulative IPC: 3.953 (Simulation time: 00 hr 27 min 40 sec)
Heartbeat CPU 0 instructions: 730000003 cycles: 184666248 heartbeat IPC: 3.988 cumulative IPC: 3.953 (Simulation time: 00 hr 28 min 00 sec)
Heartbeat CPU 0 instructions: 740000000 cycles: 187196398 heartbeat IPC: 3.952 cumulative IPC: 3.953 (Simulation time: 00 hr 28 min 26 sec)
Heartbeat CPU 0 instructions: 750000001 cycles: 189731539 heartbeat IPC: 3.945 cumulative IPC: 3.953 (Simulation time: 00 hr 28 min 59 sec)
Heartbeat CPU 0 instructions: 760000003 cycles: 192266417 heartbeat IPC: 3.945 cumulative IPC: 3.953 (Simulation time: 00 hr 29 min 32 sec)
Heartbeat CPU 0 instructions: 770000000 cycles: 194801600 heartbeat IPC: 3.944 cumulative IPC: 3.953 (Simulation time: 00 hr 30 min 06 sec)
Heartbeat CPU 0 instructions: 780000001 cycles: 197335657 heartbeat IPC: 3.946 cumulative IPC: 3.953 (Simulation time: 00 hr 30 min 39 sec)
Heartbeat CPU 0 instructions: 790000000 cycles: 199869519 heartbeat IPC: 3.947 cumulative IPC: 3.953 (Simulation time: 00 hr 31 min 12 sec)
Heartbeat CPU 0 instructions: 800000003 cycles: 202399945 heartbeat IPC: 3.952 cumulative IPC: 3.953 (Simulation time: 00 hr 31 min 46 sec)
Heartbeat CPU 0 instructions: 810000001 cycles: 204926580 heartbeat IPC: 3.958 cumulative IPC: 3.953 (Simulation time: 00 hr 32 min 20 sec)
Heartbeat CPU 0 instructions: 820000000 cycles: 207452073 heartbeat IPC: 3.96 cumulative IPC: 3.953 (Simulation time: 00 hr 32 min 53 sec)
Heartbeat CPU 0 instructions: 830000001 cycles: 209982289 heartbeat IPC: 3.952 cumulative IPC: 3.953 (Simulation time: 00 hr 33 min 27 sec)
Heartbeat CPU 0 instructions: 840000000 cycles: 212512460 heartbeat IPC: 3.952 cumulative IPC: 3.953 (Simulation time: 00 hr 34 min 01 sec)
Heartbeat CPU 0 instructions: 850000001 cycles: 215042685 heartbeat IPC: 3.952 cumulative IPC: 3.953 (Simulation time: 00 hr 34 min 34 sec)
Heartbeat CPU 0 instructions: 860000000 cycles: 217572891 heartbeat IPC: 3.952 cumulative IPC: 3.953 (Simulation time: 00 hr 35 min 08 sec)
Heartbeat CPU 0 instructions: 870000001 cycles: 220103114 heartbeat IPC: 3.952 cumulative IPC: 3.953 (Simulation time: 00 hr 35 min 41 sec)
Heartbeat CPU 0 instructions: 880000002 cycles: 222633313 heartbeat IPC: 3.952 cumulative IPC: 3.953 (Simulation time: 00 hr 36 min 15 sec)
Heartbeat CPU 0 instructions: 890000001 cycles: 225163474 heartbeat IPC: 3.952 cumulative IPC: 3.953 (Simulation time: 00 hr 36 min 48 sec)
Heartbeat CPU 0 instructions: 900000001 cycles: 227693631 heartbeat IPC: 3.952 cumulative IPC: 3.953 (Simulation time: 00 hr 37 min 13 sec)
Heartbeat CPU 0 instructions: 910000003 cycles: 230223810 heartbeat IPC: 3.952 cumulative IPC: 3.953 (Simulation time: 00 hr 37 min 31 sec)
Heartbeat CPU 0 instructions: 920000002 cycles: 232753976 heartbeat IPC: 3.952 cumulative IPC: 3.953 (Simulation time: 00 hr 37 min 49 sec)
Heartbeat CPU 0 instructions: 930000001 cycles: 235276866 heartbeat IPC: 3.964 cumulative IPC: 3.953 (Simulation time: 00 hr 38 min 07 sec)
Heartbeat CPU 0 instructions: 940000000 cycles: 237807312 heartbeat IPC: 3.952 cumulative IPC: 3.953 (Simulation time: 00 hr 38 min 25 sec)
Heartbeat CPU 0 instructions: 950000000 cycles: 240336550 heartbeat IPC: 3.954 cumulative IPC: 3.953 (Simulation time: 00 hr 38 min 43 sec)
Heartbeat CPU 0 instructions: 960000000 cycles: 242867212 heartbeat IPC: 3.952 cumulative IPC: 3.953 (Simulation time: 00 hr 39 min 01 sec)
Heartbeat CPU 0 instructions: 970000001 cycles: 245401566 heartbeat IPC: 3.946 cumulative IPC: 3.953 (Simulation time: 00 hr 39 min 19 sec)
Heartbeat CPU 0 instructions: 980000002 cycles: 247936371 heartbeat IPC: 3.945 cumulative IPC: 3.953 (Simulation time: 00 hr 39 min 44 sec)
Heartbeat CPU 0 instructions: 990000001 cycles: 250471496 heartbeat IPC: 3.945 cumulative IPC: 3.953 (Simulation time: 00 hr 40 min 18 sec)
Heartbeat CPU 0 instructions: 1000000002 cycles: 253006477 heartbeat IPC: 3.945 cumulative IPC: 3.952 (Simulation time: 00 hr 40 min 51 sec)
Warmup finished CPU 0 instructions: 1000000002 cycles: 253006478 cumulative IPC: 3.952 (Simulation time: 00 hr 40 min 51 sec)
Warmup complete CPU 0 instructions: 1000000002 cycles: 253006478 cumulative IPC: 3.952 (Simulation time: 00 hr 40 min 51 sec)
Heartbeat CPU 0 instructions: 1010000000 cycles: 256638917 heartbeat IPC: 2.753 cumulative IPC: 2.753 (Simulation time: 00 hr 41 min 39 sec)
Heartbeat CPU 0 instructions: 1020000001 cycles: 261377774 heartbeat IPC: 2.11 cumulative IPC: 2.389 (Simulation time: 00 hr 42 min 39 sec)
Heartbeat CPU 0 instructions: 1030000002 cycles: 264108612 heartbeat IPC: 3.662 cumulative IPC: 2.702 (Simulation time: 00 hr 43 min 18 sec)
Heartbeat CPU 0 instructions: 1040000003 cycles: 266837130 heartbeat IPC: 3.665 cumulative IPC: 2.892 (Simulation time: 00 hr 43 min 57 sec)
Heartbeat CPU 0 instructions: 1050000002 cycles: 269566118 heartbeat IPC: 3.664 cumulative IPC: 3.019 (Simulation time: 00 hr 44 min 36 sec)
Heartbeat CPU 0 instructions: 1060000003 cycles: 272403240 heartbeat IPC: 3.525 cumulative IPC: 3.093 (Simulation time: 00 hr 45 min 16 sec)
Heartbeat CPU 0 instructions: 1070000002 cycles: 275218580 heartbeat IPC: 3.552 cumulative IPC: 3.151 (Simulation time: 00 hr 45 min 56 sec)
Heartbeat CPU 0 instructions: 1080000001 cycles: 278037831 heartbeat IPC: 3.547 cumulative IPC: 3.196 (Simulation time: 00 hr 46 min 35 sec)
Heartbeat CPU 0 instructions: 1090000000 cycles: 280866413 heartbeat IPC: 3.535 cumulative IPC: 3.23 (Simulation time: 00 hr 46 min 57 sec)
Heartbeat CPU 0 instructions: 1100000001 cycles: 283677906 heartbeat IPC: 3.557 cumulative IPC: 3.26 (Simulation time: 00 hr 47 min 19 sec)
Heartbeat CPU 0 instructions: 1110000001 cycles: 286476356 heartbeat IPC: 3.573 cumulative IPC: 3.287 (Simulation time: 00 hr 47 min 41 sec)
Heartbeat CPU 0 instructions: 1120000003 cycles: 289277358 heartbeat IPC: 3.57 cumulative IPC: 3.308 (Simulation time: 00 hr 48 min 02 sec)
Heartbeat CPU 0 instructions: 1130000002 cycles: 292083405 heartbeat IPC: 3.564 cumulative IPC: 3.327 (Simulation time: 00 hr 48 min 24 sec)
Heartbeat CPU 0 instructions: 1140000003 cycles: 294870360 heartbeat IPC: 3.588 cumulative IPC: 3.344 (Simulation time: 00 hr 48 min 46 sec)
Heartbeat CPU 0 instructions: 1150000000 cycles: 297679379 heartbeat IPC: 3.56 cumulative IPC: 3.358 (Simulation time: 00 hr 49 min 07 sec)
Heartbeat CPU 0 instructions: 1160000000 cycles: 300475880 heartbeat IPC: 3.576 cumulative IPC: 3.371 (Simulation time: 00 hr 49 min 30 sec)
Heartbeat CPU 0 instructions: 1170000001 cycles: 303285392 heartbeat IPC: 3.559 cumulative IPC: 3.381 (Simulation time: 00 hr 49 min 51 sec)
Heartbeat CPU 0 instructions: 1180000000 cycles: 306082687 heartbeat IPC: 3.575 cumulative IPC: 3.391 (Simulation time: 00 hr 50 min 13 sec)
Heartbeat CPU 0 instructions: 1190000000 cycles: 308890622 heartbeat IPC: 3.561 cumulative IPC: 3.4 (Simulation time: 00 hr 50 min 34 sec)
Heartbeat CPU 0 instructions: 1200000004 cycles: 311687910 heartbeat IPC: 3.575 cumulative IPC: 3.408 (Simulation time: 00 hr 50 min 56 sec)
Heartbeat CPU 0 instructions: 1210000001 cycles: 314471989 heartbeat IPC: 3.592 cumulative IPC: 3.417 (Simulation time: 00 hr 51 min 17 sec)
Heartbeat CPU 0 instructions: 1220000000 cycles: 317278568 heartbeat IPC: 3.563 cumulative IPC: 3.423 (Simulation time: 00 hr 51 min 39 sec)
Heartbeat CPU 0 instructions: 1230000001 cycles: 320075239 heartbeat IPC: 3.576 cumulative IPC: 3.429 (Simulation time: 00 hr 52 min 00 sec)
Heartbeat CPU 0 instructions: 1240000004 cycles: 322882429 heartbeat IPC: 3.562 cumulative IPC: 3.435 (Simulation time: 00 hr 52 min 22 sec)
Heartbeat CPU 0 instructions: 1250000004 cycles: 325690698 heartbeat IPC: 3.561 cumulative IPC: 3.44 (Simulation time: 00 hr 52 min 43 sec)
Heartbeat CPU 0 instructions: 1260000001 cycles: 328487496 heartbeat IPC: 3.576 cumulative IPC: 3.445 (Simulation time: 00 hr 53 min 05 sec)
Heartbeat CPU 0 instructions: 1270000002 cycles: 331290577 heartbeat IPC: 3.568 cumulative IPC: 3.449 (Simulation time: 00 hr 53 min 26 sec)
Heartbeat CPU 0 instructions: 1280000000 cycles: 334099016 heartbeat IPC: 3.561 cumulative IPC: 3.453 (Simulation time: 00 hr 53 min 48 sec)
Heartbeat CPU 0 instructions: 1290000002 cycles: 336938358 heartbeat IPC: 3.522 cumulative IPC: 3.455 (Simulation time: 00 hr 54 min 09 sec)
Heartbeat CPU 0 instructions: 1300000004 cycles: 339760920 heartbeat IPC: 3.543 cumulative IPC: 3.458 (Simulation time: 00 hr 54 min 31 sec)
Heartbeat CPU 0 instructions: 1310000004 cycles: 342556258 heartbeat IPC: 3.577 cumulative IPC: 3.462 (Simulation time: 00 hr 55 min 05 sec)
Heartbeat CPU 0 instructions: 1320000000 cycles: 345399470 heartbeat IPC: 3.517 cumulative IPC: 3.463 (Simulation time: 00 hr 55 min 45 sec)
Heartbeat CPU 0 instructions: 1330000000 cycles: 348132092 heartbeat IPC: 3.659 cumulative IPC: 3.469 (Simulation time: 00 hr 56 min 24 sec)
Heartbeat CPU 0 instructions: 1340000004 cycles: 350860987 heartbeat IPC: 3.664 cumulative IPC: 3.475 (Simulation time: 00 hr 57 min 04 sec)
Heartbeat CPU 0 instructions: 1350000000 cycles: 353591975 heartbeat IPC: 3.662 cumulative IPC: 3.48 (Simulation time: 00 hr 57 min 43 sec)
Heartbeat CPU 0 instructions: 1360000004 cycles: 357596539 heartbeat IPC: 2.497 cumulative IPC: 3.442 (Simulation time: 00 hr 58 min 36 sec)
Heartbeat CPU 0 instructions: 1370000004 cycles: 361862654 heartbeat IPC: 2.344 cumulative IPC: 3.399 (Simulation time: 00 hr 59 min 31 sec)
Heartbeat CPU 0 instructions: 1380000000 cycles: 364613058 heartbeat IPC: 3.636 cumulative IPC: 3.405 (Simulation time: 01 hr 00 min 06 sec)
Heartbeat CPU 0 instructions: 1390000002 cycles: 367363707 heartbeat IPC: 3.636 cumulative IPC: 3.41 (Simulation time: 01 hr 00 min 33 sec)
Heartbeat CPU 0 instructions: 1400000004 cycles: 370115230 heartbeat IPC: 3.634 cumulative IPC: 3.416 (Simulation time: 01 hr 00 min 54 sec)
Heartbeat CPU 0 instructions: 1410000004 cycles: 372887350 heartbeat IPC: 3.607 cumulative IPC: 3.42 (Simulation time: 01 hr 01 min 15 sec)
Heartbeat CPU 0 instructions: 1420000002 cycles: 375632295 heartbeat IPC: 3.643 cumulative IPC: 3.425 (Simulation time: 01 hr 01 min 36 sec)
Heartbeat CPU 0 instructions: 1430000000 cycles: 378377284 heartbeat IPC: 3.643 cumulative IPC: 3.43 (Simulation time: 01 hr 01 min 57 sec)
Heartbeat CPU 0 instructions: 1440000000 cycles: 381120643 heartbeat IPC: 3.645 cumulative IPC: 3.434 (Simulation time: 01 hr 02 min 33 sec)
Heartbeat CPU 0 instructions: 1450000002 cycles: 383925012 heartbeat IPC: 3.566 cumulative IPC: 3.437 (Simulation time: 01 hr 03 min 13 sec)
Heartbeat CPU 0 instructions: 1460000003 cycles: 386693884 heartbeat IPC: 3.612 cumulative IPC: 3.441 (Simulation time: 01 hr 03 min 53 sec)
Heartbeat CPU 0 instructions: 1470000000 cycles: 389511444 heartbeat IPC: 3.549 cumulative IPC: 3.443 (Simulation time: 01 hr 04 min 34 sec)
Heartbeat CPU 0 instructions: 1480000000 cycles: 392384907 heartbeat IPC: 3.48 cumulative IPC: 3.444 (Simulation time: 01 hr 05 min 15 sec)
Heartbeat CPU 0 instructions: 1490000000 cycles: 395171512 heartbeat IPC: 3.589 cumulative IPC: 3.447 (Simulation time: 01 hr 05 min 54 sec)
Heartbeat CPU 0 instructions: 1500000002 cycles: 397966627 heartbeat IPC: 3.578 cumulative IPC: 3.449 (Simulation time: 01 hr 06 min 34 sec)
Simulation finished CPU 0 instructions: 500000000 cycles: 144960150 cumulative IPC: 3.449 (Simulation time: 01 hr 06 min 34 sec)
Simulation complete CPU 0 instructions: 500000000 cycles: 144960150 cumulative IPC: 3.449 (Simulation time: 01 hr 06 min 34 sec)

ChampSim completed all CPUs

=== Simulation ===
CPU 0 runs traces/603.bwaves_s-1080B.champsimtrace.xz
Region of Interest Statistics

CPU 0 cumulative IPC: 3.449 instructions: 500000000 cycles: 144960150
CPU 0 Branch Prediction Accuracy: 99.02% MPKI: 1.422 Average ROB Occupancy at Mispredict: 121
Branch type MPKI
BRANCH_DIRECT_JUMP: 0.186
BRANCH_INDIRECT: 0
BRANCH_CONDITIONAL: 1.1
BRANCH_DIRECT_CALL: 0
BRANCH_INDIRECT_CALL: 0
BRANCH_RETURN: 0.131

LLC TOTAL        ACCESS:     328060 HIT:     156012 MISS:     172048
LLC LOAD         ACCESS:      15777 HIT:         14 MISS:      15763
LLC RFO          ACCESS:     156255 HIT:         13 MISS:     156242
LLC PREFETCH     ACCESS:          0 HIT:          0 MISS:          0
LLC WRITE        ACCESS:     156007 HIT:     155982 MISS:         25
LLC TRANSLATION  ACCESS:         21 HIT:          3 MISS:         18
LLC PREFETCH REQUESTED:          0 ISSUED:          0 USEFUL:          0 USELESS:          0
LLC AVERAGE MISS LATENCY: 407.8 cycles
cpu0_DTLB TOTAL        ACCESS:   82061594 HIT:   82037558 MISS:      24036
cpu0_DTLB LOAD         ACCESS:   82061594 HIT:   82037558 MISS:      24036
cpu0_DTLB RFO          ACCESS:          0 HIT:          0 MISS:          0
cpu0_DTLB PREFETCH     ACCESS:          0 HIT:          0 MISS:          0
cpu0_DTLB WRITE        ACCESS:          0 HIT:          0 MISS:          0
cpu0_DTLB TRANSLATION  ACCESS:          0 HIT:          0 MISS:          0
cpu0_DTLB PREFETCH REQUESTED:          0 ISSUED:          0 USEFUL:          0 USELESS:          0
cpu0_DTLB AVERAGE MISS LATENCY: 19.6 cycles
cpu0_ITLB TOTAL        ACCESS:    1897552 HIT:    1897552 MISS:          0
cpu0_ITLB LOAD         ACCESS:    1897552 HIT:    1897552 MISS:          0
cpu0_ITLB RFO          ACCESS:          0 HIT:          0 MISS:          0
cpu0_ITLB PREFETCH     ACCESS:          0 HIT:          0 MISS:          0
cpu0_ITLB WRITE        ACCESS:          0 HIT:          0 MISS:          0
cpu0_ITLB TRANSLATION  ACCESS:          0 HIT:          0 MISS:          0
cpu0_ITLB PREFETCH REQUESTED:          0 ISSUED:          0 USEFUL:          0 USELESS:          0
cpu0_ITLB AVERAGE MISS LATENCY: -nan cycles
cpu0_L1D TOTAL        ACCESS:  126303547 HIT:  125111376 MISS:    1192171
cpu0_L1D LOAD         ACCESS:  105190154 HIT:  105146598 MISS:      43556
cpu0_L1D RFO          ACCESS:          0 HIT:          0 MISS:          0
cpu0_L1D PREFETCH     ACCESS:          0 HIT:          0 MISS:          0
cpu0_L1D WRITE        ACCESS:   21110697 HIT:   19962347 MISS:    1148350
cpu0_L1D TRANSLATION  ACCESS:       2696 HIT:       2431 MISS:        265
cpu0_L1D PREFETCH REQUESTED:          0 ISSUED:          0 USEFUL:          0 USELESS:          0
cpu0_L1D AVERAGE MISS LATENCY: 59.07 cycles
cpu0_L1I TOTAL        ACCESS:    2199268 HIT:    2199268 MISS:          0
cpu0_L1I LOAD         ACCESS:    2199268 HIT:    2199268 MISS:          0
cpu0_L1I RFO          ACCESS:          0 HIT:          0 MISS:          0
cpu0_L1I PREFETCH     ACCESS:          0 HIT:          0 MISS:          0
cpu0_L1I WRITE        ACCESS:          0 HIT:          0 MISS:          0
cpu0_L1I TRANSLATION  ACCESS:          0 HIT:          0 MISS:          0
cpu0_L1I PREFETCH REQUESTED:          0 ISSUED:          0 USEFUL:          0 USELESS:          0
cpu0_L1I AVERAGE MISS LATENCY: -nan cycles
cpu0_L2C TOTAL        ACCESS:     331490 HIT:     159415 MISS:     172075
cpu0_L2C LOAD         ACCESS:      17013 HIT:       1236 MISS:      15777
cpu0_L2C RFO          ACCESS:     157370 HIT:       1115 MISS:     156255
cpu0_L2C PREFETCH     ACCESS:          0 HIT:          0 MISS:          0
cpu0_L2C WRITE        ACCESS:     156842 HIT:     156820 MISS:         22
cpu0_L2C TRANSLATION  ACCESS:        265 HIT:        244 MISS:         21
cpu0_L2C PREFETCH REQUESTED:          0 ISSUED:          0 USEFUL:          0 USELESS:          0
cpu0_L2C AVERAGE MISS LATENCY: 428.8 cycles
cpu0_STLB TOTAL        ACCESS:       2815 HIT:        124 MISS:       2691
cpu0_STLB LOAD         ACCESS:       2815 HIT:        124 MISS:       2691
cpu0_STLB RFO          ACCESS:          0 HIT:          0 MISS:          0
cpu0_STLB PREFETCH     ACCESS:          0 HIT:          0 MISS:          0
cpu0_STLB WRITE        ACCESS:          0 HIT:          0 MISS:          0
cpu0_STLB TRANSLATION  ACCESS:          0 HIT:          0 MISS:          0
cpu0_STLB PREFETCH REQUESTED:          0 ISSUED:          0 USEFUL:          0 USELESS:          0
cpu0_STLB AVERAGE MISS LATENCY: 210.2 cycles

DRAM Statistics

Channel 0 RQ ROW_BUFFER_HIT:      59762
  ROW_BUFFER_MISS:     112261
 AVG DBUS CONGESTED CYCLE: 3.932
WQ ROW_BUFFER_HIT: Channel 0 
  ROW_BUFFER_MISS:      53751
  FULL:     102297

NOT_BRANCH: 0

BRANCH_DIRECT_JUMP: 16403078

BRANCH_INDIRECT: 1555774

BRANCH_CONDITIONAL: 194400119

BRANCH_DIRECT_CALL: 2643820

BRANCH_INDIRECT_CALL: 0

BRANCH_RETURN: 2643820

BRANCH_OTHER: 0
