WARNING: physical memory size is smaller than virtual memory size.

*** ChampSim Multicore Out-of-Order Simulator ***
Warmup Instructions: 1000000000
Simulation Instructions: 500000000
Number of CPUs: 1
Page size: 4096

Off-chip DRAM Size: 4 GiB Channels: 1 Width: 64-bit Data Race: 3200 MT/s
Heartbeat CPU 0 instructions: 10000002 cycles: 2521309 heartbeat IPC: 3.966 cumulative IPC: 3.966 (Simulation time: 00 hr 00 min 29 sec)
Heartbeat CPU 0 instructions: 20000002 cycles: 5034851 heartbeat IPC: 3.978 cumulative IPC: 3.972 (Simulation time: 00 hr 01 min 08 sec)
Heartbeat CPU 0 instructions: 30000000 cycles: 7565473 heartbeat IPC: 3.952 cumulative IPC: 3.965 (Simulation time: 00 hr 01 min 42 sec)
Heartbeat CPU 0 instructions: 40000001 cycles: 10096136 heartbeat IPC: 3.952 cumulative IPC: 3.962 (Simulation time: 00 hr 02 min 16 sec)
Heartbeat CPU 0 instructions: 50000000 cycles: 12626415 heartbeat IPC: 3.952 cumulative IPC: 3.96 (Simulation time: 00 hr 02 min 51 sec)
Heartbeat CPU 0 instructions: 60000000 cycles: 15158831 heartbeat IPC: 3.949 cumulative IPC: 3.958 (Simulation time: 00 hr 03 min 25 sec)
Heartbeat CPU 0 instructions: 70000001 cycles: 17691476 heartbeat IPC: 3.948 cumulative IPC: 3.957 (Simulation time: 00 hr 03 min 59 sec)
Heartbeat CPU 0 instructions: 80000001 cycles: 20224136 heartbeat IPC: 3.948 cumulative IPC: 3.956 (Simulation time: 00 hr 04 min 33 sec)
Heartbeat CPU 0 instructions: 90000003 cycles: 22756477 heartbeat IPC: 3.949 cumulative IPC: 3.955 (Simulation time: 00 hr 05 min 08 sec)
Heartbeat CPU 0 instructions: 100000003 cycles: 25290059 heartbeat IPC: 3.947 cumulative IPC: 3.954 (Simulation time: 00 hr 05 min 42 sec)
Heartbeat CPU 0 instructions: 110000003 cycles: 27824424 heartbeat IPC: 3.946 cumulative IPC: 3.953 (Simulation time: 00 hr 06 min 16 sec)
Heartbeat CPU 0 instructions: 120000003 cycles: 30359377 heartbeat IPC: 3.945 cumulative IPC: 3.953 (Simulation time: 00 hr 06 min 50 sec)
Heartbeat CPU 0 instructions: 130000002 cycles: 32894637 heartbeat IPC: 3.944 cumulative IPC: 3.952 (Simulation time: 00 hr 07 min 13 sec)
Heartbeat CPU 0 instructions: 140000000 cycles: 35429601 heartbeat IPC: 3.945 cumulative IPC: 3.951 (Simulation time: 00 hr 07 min 34 sec)
Heartbeat CPU 0 instructions: 150000001 cycles: 37963249 heartbeat IPC: 3.947 cumulative IPC: 3.951 (Simulation time: 00 hr 08 min 08 sec)
Heartbeat CPU 0 instructions: 160000000 cycles: 40497291 heartbeat IPC: 3.946 cumulative IPC: 3.951 (Simulation time: 00 hr 08 min 43 sec)
Heartbeat CPU 0 instructions: 170000003 cycles: 43030193 heartbeat IPC: 3.948 cumulative IPC: 3.951 (Simulation time: 00 hr 09 min 17 sec)
Heartbeat CPU 0 instructions: 180000003 cycles: 45564174 heartbeat IPC: 3.946 cumulative IPC: 3.95 (Simulation time: 00 hr 09 min 51 sec)
Heartbeat CPU 0 instructions: 190000002 cycles: 48097393 heartbeat IPC: 3.948 cumulative IPC: 3.95 (Simulation time: 00 hr 10 min 19 sec)
Heartbeat CPU 0 instructions: 200000001 cycles: 50630468 heartbeat IPC: 3.948 cumulative IPC: 3.95 (Simulation time: 00 hr 10 min 49 sec)
Heartbeat CPU 0 instructions: 210000002 cycles: 53164350 heartbeat IPC: 3.947 cumulative IPC: 3.95 (Simulation time: 00 hr 11 min 23 sec)
Heartbeat CPU 0 instructions: 220000002 cycles: 55697250 heartbeat IPC: 3.948 cumulative IPC: 3.95 (Simulation time: 00 hr 11 min 57 sec)
Heartbeat CPU 0 instructions: 230000000 cycles: 58230991 heartbeat IPC: 3.947 cumulative IPC: 3.95 (Simulation time: 00 hr 12 min 32 sec)
Heartbeat CPU 0 instructions: 240000003 cycles: 60764292 heartbeat IPC: 3.947 cumulative IPC: 3.95 (Simulation time: 00 hr 12 min 57 sec)
Heartbeat CPU 0 instructions: 250000002 cycles: 63297535 heartbeat IPC: 3.948 cumulative IPC: 3.95 (Simulation time: 00 hr 13 min 15 sec)
Heartbeat CPU 0 instructions: 260000003 cycles: 65831132 heartbeat IPC: 3.947 cumulative IPC: 3.949 (Simulation time: 00 hr 13 min 34 sec)
Heartbeat CPU 0 instructions: 270000002 cycles: 68364268 heartbeat IPC: 3.948 cumulative IPC: 3.949 (Simulation time: 00 hr 13 min 52 sec)
Heartbeat CPU 0 instructions: 280000001 cycles: 70897704 heartbeat IPC: 3.947 cumulative IPC: 3.949 (Simulation time: 00 hr 14 min 11 sec)
Heartbeat CPU 0 instructions: 290000001 cycles: 73431291 heartbeat IPC: 3.947 cumulative IPC: 3.949 (Simulation time: 00 hr 14 min 30 sec)
Heartbeat CPU 0 instructions: 300000000 cycles: 75964505 heartbeat IPC: 3.948 cumulative IPC: 3.949 (Simulation time: 00 hr 14 min 50 sec)
Heartbeat CPU 0 instructions: 310000000 cycles: 78498012 heartbeat IPC: 3.947 cumulative IPC: 3.949 (Simulation time: 00 hr 15 min 11 sec)
Heartbeat CPU 0 instructions: 320000002 cycles: 81031282 heartbeat IPC: 3.947 cumulative IPC: 3.949 (Simulation time: 00 hr 15 min 30 sec)
Heartbeat CPU 0 instructions: 330000001 cycles: 83565064 heartbeat IPC: 3.947 cumulative IPC: 3.949 (Simulation time: 00 hr 16 min 04 sec)
Heartbeat CPU 0 instructions: 340000001 cycles: 86098971 heartbeat IPC: 3.946 cumulative IPC: 3.949 (Simulation time: 00 hr 16 min 39 sec)
Heartbeat CPU 0 instructions: 350000000 cycles: 88633877 heartbeat IPC: 3.945 cumulative IPC: 3.949 (Simulation time: 00 hr 17 min 13 sec)
Heartbeat CPU 0 instructions: 360000001 cycles: 91169289 heartbeat IPC: 3.944 cumulative IPC: 3.949 (Simulation time: 00 hr 17 min 41 sec)
Heartbeat CPU 0 instructions: 370000002 cycles: 93704149 heartbeat IPC: 3.945 cumulative IPC: 3.949 (Simulation time: 00 hr 18 min 07 sec)
Heartbeat CPU 0 instructions: 380000000 cycles: 96238471 heartbeat IPC: 3.946 cumulative IPC: 3.949 (Simulation time: 00 hr 18 min 30 sec)
Heartbeat CPU 0 instructions: 390000000 cycles: 98771597 heartbeat IPC: 3.948 cumulative IPC: 3.949 (Simulation time: 00 hr 18 min 56 sec)
Heartbeat CPU 0 instructions: 400000003 cycles: 101304381 heartbeat IPC: 3.948 cumulative IPC: 3.948 (Simulation time: 00 hr 19 min 30 sec)
Heartbeat CPU 0 instructions: 410000002 cycles: 103836810 heartbeat IPC: 3.949 cumulative IPC: 3.949 (Simulation time: 00 hr 19 min 58 sec)
Heartbeat CPU 0 instructions: 420000004 cycles: 106369445 heartbeat IPC: 3.948 cumulative IPC: 3.949 (Simulation time: 00 hr 20 min 19 sec)
Heartbeat CPU 0 instructions: 430000001 cycles: 108901489 heartbeat IPC: 3.949 cumulative IPC: 3.949 (Simulation time: 00 hr 20 min 39 sec)
Heartbeat CPU 0 instructions: 440000003 cycles: 111431923 heartbeat IPC: 3.952 cumulative IPC: 3.949 (Simulation time: 00 hr 21 min 11 sec)
Heartbeat CPU 0 instructions: 450000004 cycles: 113962443 heartbeat IPC: 3.952 cumulative IPC: 3.949 (Simulation time: 00 hr 21 min 49 sec)
Heartbeat CPU 0 instructions: 460000001 cycles: 116493002 heartbeat IPC: 3.952 cumulative IPC: 3.949 (Simulation time: 00 hr 22 min 30 sec)
Heartbeat CPU 0 instructions: 470000003 cycles: 119003377 heartbeat IPC: 3.983 cumulative IPC: 3.949 (Simulation time: 00 hr 23 min 01 sec)
Heartbeat CPU 0 instructions: 480000002 cycles: 121529394 heartbeat IPC: 3.959 cumulative IPC: 3.95 (Simulation time: 00 hr 23 min 37 sec)
Heartbeat CPU 0 instructions: 490000001 cycles: 124063617 heartbeat IPC: 3.946 cumulative IPC: 3.95 (Simulation time: 00 hr 24 min 18 sec)
Heartbeat CPU 0 instructions: 500000003 cycles: 126596896 heartbeat IPC: 3.947 cumulative IPC: 3.95 (Simulation time: 00 hr 24 min 42 sec)
Heartbeat CPU 0 instructions: 510000003 cycles: 129128820 heartbeat IPC: 3.95 cumulative IPC: 3.95 (Simulation time: 00 hr 25 min 01 sec)
Heartbeat CPU 0 instructions: 520000001 cycles: 131661000 heartbeat IPC: 3.949 cumulative IPC: 3.95 (Simulation time: 00 hr 25 min 19 sec)
Heartbeat CPU 0 instructions: 530000001 cycles: 134182442 heartbeat IPC: 3.966 cumulative IPC: 3.95 (Simulation time: 00 hr 25 min 38 sec)
Heartbeat CPU 0 instructions: 540000003 cycles: 136702433 heartbeat IPC: 3.968 cumulative IPC: 3.95 (Simulation time: 00 hr 25 min 57 sec)
Heartbeat CPU 0 instructions: 550000003 cycles: 139222535 heartbeat IPC: 3.968 cumulative IPC: 3.951 (Simulation time: 00 hr 26 min 16 sec)
Heartbeat CPU 0 instructions: 560000003 cycles: 141742904 heartbeat IPC: 3.968 cumulative IPC: 3.951 (Simulation time: 00 hr 26 min 36 sec)
Heartbeat CPU 0 instructions: 570000003 cycles: 144262969 heartbeat IPC: 3.968 cumulative IPC: 3.951 (Simulation time: 00 hr 26 min 55 sec)
Heartbeat CPU 0 instructions: 580000003 cycles: 146783061 heartbeat IPC: 3.968 cumulative IPC: 3.951 (Simulation time: 00 hr 27 min 14 sec)
Heartbeat CPU 0 instructions: 590000001 cycles: 149302506 heartbeat IPC: 3.969 cumulative IPC: 3.952 (Simulation time: 00 hr 27 min 48 sec)
Heartbeat CPU 0 instructions: 600000001 cycles: 151821567 heartbeat IPC: 3.97 cumulative IPC: 3.952 (Simulation time: 00 hr 28 min 24 sec)
Heartbeat CPU 0 instructions: 610000001 cycles: 154340629 heartbeat IPC: 3.97 cumulative IPC: 3.952 (Simulation time: 00 hr 28 min 59 sec)
Heartbeat CPU 0 instructions: 620000001 cycles: 156859690 heartbeat IPC: 3.97 cumulative IPC: 3.953 (Simulation time: 00 hr 29 min 35 sec)
Heartbeat CPU 0 instructions: 630000001 cycles: 159378750 heartbeat IPC: 3.97 cumulative IPC: 3.953 (Simulation time: 00 hr 30 min 10 sec)
Heartbeat CPU 0 instructions: 640000002 cycles: 161899669 heartbeat IPC: 3.967 cumulative IPC: 3.953 (Simulation time: 00 hr 30 min 45 sec)
Heartbeat CPU 0 instructions: 650000003 cycles: 164431490 heartbeat IPC: 3.95 cumulative IPC: 3.953 (Simulation time: 00 hr 31 min 19 sec)
Heartbeat CPU 0 instructions: 660000003 cycles: 166964694 heartbeat IPC: 3.948 cumulative IPC: 3.953 (Simulation time: 00 hr 31 min 53 sec)
Heartbeat CPU 0 instructions: 670000003 cycles: 169492417 heartbeat IPC: 3.956 cumulative IPC: 3.953 (Simulation time: 00 hr 32 min 27 sec)
Heartbeat CPU 0 instructions: 680000003 cycles: 172026671 heartbeat IPC: 3.946 cumulative IPC: 3.953 (Simulation time: 00 hr 33 min 00 sec)
Heartbeat CPU 0 instructions: 690000001 cycles: 174561375 heartbeat IPC: 3.945 cumulative IPC: 3.953 (Simulation time: 00 hr 33 min 34 sec)
Heartbeat CPU 0 instructions: 700000003 cycles: 177096079 heartbeat IPC: 3.945 cumulative IPC: 3.953 (Simulation time: 00 hr 34 min 08 sec)
Heartbeat CPU 0 instructions: 710000000 cycles: 179630674 heartbeat IPC: 3.945 cumulative IPC: 3.953 (Simulation time: 00 hr 34 min 41 sec)
Heartbeat CPU 0 instructions: 720000001 cycles: 182163426 heartbeat IPC: 3.948 cumulative IPC: 3.952 (Simulation time: 00 hr 35 min 15 sec)
Heartbeat CPU 0 instructions: 730000003 cycles: 184670653 heartbeat IPC: 3.988 cumulative IPC: 3.953 (Simulation time: 00 hr 35 min 51 sec)
Heartbeat CPU 0 instructions: 740000000 cycles: 187200884 heartbeat IPC: 3.952 cumulative IPC: 3.953 (Simulation time: 00 hr 36 min 25 sec)
Heartbeat CPU 0 instructions: 750000001 cycles: 189736115 heartbeat IPC: 3.944 cumulative IPC: 3.953 (Simulation time: 00 hr 36 min 47 sec)
Heartbeat CPU 0 instructions: 760000003 cycles: 192271058 heartbeat IPC: 3.945 cumulative IPC: 3.953 (Simulation time: 00 hr 37 min 07 sec)
Heartbeat CPU 0 instructions: 770000000 cycles: 194806315 heartbeat IPC: 3.944 cumulative IPC: 3.953 (Simulation time: 00 hr 37 min 26 sec)
Heartbeat CPU 0 instructions: 780000001 cycles: 197340447 heartbeat IPC: 3.946 cumulative IPC: 3.953 (Simulation time: 00 hr 37 min 44 sec)
Heartbeat CPU 0 instructions: 790000000 cycles: 199874384 heartbeat IPC: 3.946 cumulative IPC: 3.952 (Simulation time: 00 hr 38 min 03 sec)
Heartbeat CPU 0 instructions: 800000003 cycles: 202404872 heartbeat IPC: 3.952 cumulative IPC: 3.952 (Simulation time: 00 hr 38 min 22 sec)
Heartbeat CPU 0 instructions: 810000001 cycles: 204931559 heartbeat IPC: 3.958 cumulative IPC: 3.953 (Simulation time: 00 hr 38 min 41 sec)
Heartbeat CPU 0 instructions: 820000000 cycles: 207457103 heartbeat IPC: 3.96 cumulative IPC: 3.953 (Simulation time: 00 hr 39 min 00 sec)
Heartbeat CPU 0 instructions: 830000001 cycles: 209987382 heartbeat IPC: 3.952 cumulative IPC: 3.953 (Simulation time: 00 hr 39 min 19 sec)
Heartbeat CPU 0 instructions: 840000000 cycles: 212517627 heartbeat IPC: 3.952 cumulative IPC: 3.953 (Simulation time: 00 hr 39 min 38 sec)
Heartbeat CPU 0 instructions: 850000001 cycles: 215047908 heartbeat IPC: 3.952 cumulative IPC: 3.953 (Simulation time: 00 hr 39 min 57 sec)
Heartbeat CPU 0 instructions: 860000000 cycles: 217578189 heartbeat IPC: 3.952 cumulative IPC: 3.953 (Simulation time: 00 hr 40 min 15 sec)
Heartbeat CPU 0 instructions: 870000001 cycles: 220108470 heartbeat IPC: 3.952 cumulative IPC: 3.953 (Simulation time: 00 hr 40 min 34 sec)
Heartbeat CPU 0 instructions: 880000002 cycles: 222638754 heartbeat IPC: 3.952 cumulative IPC: 3.953 (Simulation time: 00 hr 40 min 53 sec)
Heartbeat CPU 0 instructions: 890000001 cycles: 225168996 heartbeat IPC: 3.952 cumulative IPC: 3.953 (Simulation time: 00 hr 41 min 12 sec)
Heartbeat CPU 0 instructions: 900000001 cycles: 227699221 heartbeat IPC: 3.952 cumulative IPC: 3.953 (Simulation time: 00 hr 41 min 32 sec)
Heartbeat CPU 0 instructions: 910000003 cycles: 230229444 heartbeat IPC: 3.952 cumulative IPC: 3.953 (Simulation time: 00 hr 42 min 02 sec)
Heartbeat CPU 0 instructions: 920000002 cycles: 232759683 heartbeat IPC: 3.952 cumulative IPC: 3.953 (Simulation time: 00 hr 42 min 36 sec)
Heartbeat CPU 0 instructions: 930000001 cycles: 235282619 heartbeat IPC: 3.964 cumulative IPC: 3.953 (Simulation time: 00 hr 43 min 11 sec)
Heartbeat CPU 0 instructions: 940000000 cycles: 237813137 heartbeat IPC: 3.952 cumulative IPC: 3.953 (Simulation time: 00 hr 43 min 45 sec)
Heartbeat CPU 0 instructions: 950000000 cycles: 240342459 heartbeat IPC: 3.954 cumulative IPC: 3.953 (Simulation time: 00 hr 44 min 19 sec)
Heartbeat CPU 0 instructions: 960000000 cycles: 242873211 heartbeat IPC: 3.951 cumulative IPC: 3.953 (Simulation time: 00 hr 44 min 54 sec)
Heartbeat CPU 0 instructions: 970000001 cycles: 245407643 heartbeat IPC: 3.946 cumulative IPC: 3.953 (Simulation time: 00 hr 45 min 28 sec)
Heartbeat CPU 0 instructions: 980000002 cycles: 247942539 heartbeat IPC: 3.945 cumulative IPC: 3.953 (Simulation time: 00 hr 46 min 02 sec)
Heartbeat CPU 0 instructions: 990000001 cycles: 250477738 heartbeat IPC: 3.944 cumulative IPC: 3.952 (Simulation time: 00 hr 46 min 36 sec)
Heartbeat CPU 0 instructions: 1000000002 cycles: 253012807 heartbeat IPC: 3.945 cumulative IPC: 3.952 (Simulation time: 00 hr 47 min 10 sec)
Warmup finished CPU 0 instructions: 1000000002 cycles: 253012808 cumulative IPC: 3.952 (Simulation time: 00 hr 47 min 10 sec)
Warmup complete CPU 0 instructions: 1000000002 cycles: 253012808 cumulative IPC: 3.952 (Simulation time: 00 hr 47 min 10 sec)
Heartbeat CPU 0 instructions: 1010000000 cycles: 256643578 heartbeat IPC: 2.754 cumulative IPC: 2.754 (Simulation time: 00 hr 47 min 58 sec)
Heartbeat CPU 0 instructions: 1020000001 cycles: 261377975 heartbeat IPC: 2.112 cumulative IPC: 2.391 (Simulation time: 00 hr 48 min 59 sec)
Heartbeat CPU 0 instructions: 1030000002 cycles: 264104062 heartbeat IPC: 3.668 cumulative IPC: 2.705 (Simulation time: 00 hr 49 min 38 sec)
Heartbeat CPU 0 instructions: 1040000003 cycles: 266828147 heartbeat IPC: 3.671 cumulative IPC: 2.895 (Simulation time: 00 hr 50 min 18 sec)
Heartbeat CPU 0 instructions: 1050000000 cycles: 269554350 heartbeat IPC: 3.668 cumulative IPC: 3.023 (Simulation time: 00 hr 50 min 57 sec)
Heartbeat CPU 0 instructions: 1060000003 cycles: 272385764 heartbeat IPC: 3.532 cumulative IPC: 3.097 (Simulation time: 00 hr 51 min 38 sec)
Heartbeat CPU 0 instructions: 1070000002 cycles: 275202453 heartbeat IPC: 3.55 cumulative IPC: 3.155 (Simulation time: 00 hr 52 min 18 sec)
Heartbeat CPU 0 instructions: 1080000001 cycles: 278037663 heartbeat IPC: 3.527 cumulative IPC: 3.197 (Simulation time: 00 hr 52 min 59 sec)
Heartbeat CPU 0 instructions: 1090000000 cycles: 280880374 heartbeat IPC: 3.518 cumulative IPC: 3.23 (Simulation time: 00 hr 53 min 40 sec)
Heartbeat CPU 0 instructions: 1100000001 cycles: 283700607 heartbeat IPC: 3.546 cumulative IPC: 3.259 (Simulation time: 00 hr 54 min 21 sec)
Heartbeat CPU 0 instructions: 1110000001 cycles: 286499865 heartbeat IPC: 3.572 cumulative IPC: 3.285 (Simulation time: 00 hr 55 min 01 sec)
Heartbeat CPU 0 instructions: 1120000003 cycles: 289299050 heartbeat IPC: 3.572 cumulative IPC: 3.307 (Simulation time: 00 hr 55 min 41 sec)
Heartbeat CPU 0 instructions: 1130000002 cycles: 292113218 heartbeat IPC: 3.553 cumulative IPC: 3.325 (Simulation time: 00 hr 56 min 22 sec)
Heartbeat CPU 0 instructions: 1140000003 cycles: 294897516 heartbeat IPC: 3.592 cumulative IPC: 3.343 (Simulation time: 00 hr 57 min 02 sec)
Heartbeat CPU 0 instructions: 1150000000 cycles: 297703531 heartbeat IPC: 3.564 cumulative IPC: 3.356 (Simulation time: 00 hr 57 min 42 sec)
Heartbeat CPU 0 instructions: 1160000000 cycles: 300504921 heartbeat IPC: 3.57 cumulative IPC: 3.369 (Simulation time: 00 hr 58 min 22 sec)
Heartbeat CPU 0 instructions: 1170000001 cycles: 303314577 heartbeat IPC: 3.559 cumulative IPC: 3.38 (Simulation time: 00 hr 59 min 02 sec)
Heartbeat CPU 0 instructions: 1180000000 cycles: 306108369 heartbeat IPC: 3.579 cumulative IPC: 3.39 (Simulation time: 00 hr 59 min 43 sec)
Heartbeat CPU 0 instructions: 1190000000 cycles: 308915680 heartbeat IPC: 3.562 cumulative IPC: 3.399 (Simulation time: 01 hr 00 min 23 sec)
Heartbeat CPU 0 instructions: 1200000004 cycles: 311718931 heartbeat IPC: 3.567 cumulative IPC: 3.407 (Simulation time: 01 hr 01 min 03 sec)
Heartbeat CPU 0 instructions: 1210000001 cycles: 314499647 heartbeat IPC: 3.596 cumulative IPC: 3.415 (Simulation time: 01 hr 01 min 43 sec)
Heartbeat CPU 0 instructions: 1220000000 cycles: 317300508 heartbeat IPC: 3.57 cumulative IPC: 3.422 (Simulation time: 01 hr 02 min 23 sec)
Heartbeat CPU 0 instructions: 1230000001 cycles: 320096380 heartbeat IPC: 3.577 cumulative IPC: 3.429 (Simulation time: 01 hr 03 min 04 sec)
Heartbeat CPU 0 instructions: 1240000004 cycles: 322902530 heartbeat IPC: 3.564 cumulative IPC: 3.434 (Simulation time: 01 hr 03 min 44 sec)
Heartbeat CPU 0 instructions: 1250000001 cycles: 325711763 heartbeat IPC: 3.56 cumulative IPC: 3.439 (Simulation time: 01 hr 04 min 24 sec)
Heartbeat CPU 0 instructions: 1260000001 cycles: 328501148 heartbeat IPC: 3.585 cumulative IPC: 3.444 (Simulation time: 01 hr 04 min 57 sec)
Heartbeat CPU 0 instructions: 1270000002 cycles: 331300613 heartbeat IPC: 3.572 cumulative IPC: 3.449 (Simulation time: 01 hr 05 min 20 sec)
Heartbeat CPU 0 instructions: 1280000000 cycles: 334114787 heartbeat IPC: 3.553 cumulative IPC: 3.452 (Simulation time: 01 hr 05 min 42 sec)
Heartbeat CPU 0 instructions: 1290000002 cycles: 336951257 heartbeat IPC: 3.526 cumulative IPC: 3.455 (Simulation time: 01 hr 06 min 04 sec)
Heartbeat CPU 0 instructions: 1300000004 cycles: 339783391 heartbeat IPC: 3.531 cumulative IPC: 3.457 (Simulation time: 01 hr 06 min 27 sec)
Heartbeat CPU 0 instructions: 1310000004 cycles: 342574342 heartbeat IPC: 3.583 cumulative IPC: 3.461 (Simulation time: 01 hr 06 min 49 sec)
Heartbeat CPU 0 instructions: 1320000000 cycles: 345410117 heartbeat IPC: 3.526 cumulative IPC: 3.463 (Simulation time: 01 hr 07 min 11 sec)
Heartbeat CPU 0 instructions: 1330000000 cycles: 348138109 heartbeat IPC: 3.666 cumulative IPC: 3.469 (Simulation time: 01 hr 07 min 33 sec)
Heartbeat CPU 0 instructions: 1340000004 cycles: 350861880 heartbeat IPC: 3.671 cumulative IPC: 3.475 (Simulation time: 01 hr 07 min 54 sec)
Heartbeat CPU 0 instructions: 1350000000 cycles: 353589016 heartbeat IPC: 3.667 cumulative IPC: 3.48 (Simulation time: 01 hr 08 min 16 sec)
Heartbeat CPU 0 instructions: 1360000004 cycles: 357582605 heartbeat IPC: 2.504 cumulative IPC: 3.443 (Simulation time: 01 hr 08 min 45 sec)
Heartbeat CPU 0 instructions: 1370000004 cycles: 361847304 heartbeat IPC: 2.345 cumulative IPC: 3.4 (Simulation time: 01 hr 09 min 16 sec)
Heartbeat CPU 0 instructions: 1380000000 cycles: 364590948 heartbeat IPC: 3.645 cumulative IPC: 3.406 (Simulation time: 01 hr 09 min 37 sec)
Heartbeat CPU 0 instructions: 1390000002 cycles: 367335049 heartbeat IPC: 3.644 cumulative IPC: 3.411 (Simulation time: 01 hr 09 min 59 sec)
Heartbeat CPU 0 instructions: 1400000004 cycles: 370079868 heartbeat IPC: 3.643 cumulative IPC: 3.417 (Simulation time: 01 hr 10 min 21 sec)
Heartbeat CPU 0 instructions: 1410000004 cycles: 372849399 heartbeat IPC: 3.611 cumulative IPC: 3.421 (Simulation time: 01 hr 10 min 43 sec)
Heartbeat CPU 0 instructions: 1420000002 cycles: 375587963 heartbeat IPC: 3.652 cumulative IPC: 3.426 (Simulation time: 01 hr 11 min 05 sec)
Heartbeat CPU 0 instructions: 1430000000 cycles: 378326585 heartbeat IPC: 3.651 cumulative IPC: 3.431 (Simulation time: 01 hr 11 min 26 sec)
Heartbeat CPU 0 instructions: 1440000000 cycles: 381062333 heartbeat IPC: 3.655 cumulative IPC: 3.436 (Simulation time: 01 hr 11 min 48 sec)
Heartbeat CPU 0 instructions: 1450000002 cycles: 383875328 heartbeat IPC: 3.555 cumulative IPC: 3.439 (Simulation time: 01 hr 12 min 10 sec)
Heartbeat CPU 0 instructions: 1460000003 cycles: 386648885 heartbeat IPC: 3.605 cumulative IPC: 3.442 (Simulation time: 01 hr 12 min 33 sec)
Heartbeat CPU 0 instructions: 1470000000 cycles: 389480480 heartbeat IPC: 3.532 cumulative IPC: 3.444 (Simulation time: 01 hr 12 min 55 sec)
Heartbeat CPU 0 instructions: 1480000000 cycles: 392359074 heartbeat IPC: 3.474 cumulative IPC: 3.445 (Simulation time: 01 hr 13 min 18 sec)
Heartbeat CPU 0 instructions: 1490000000 cycles: 395136474 heartbeat IPC: 3.6 cumulative IPC: 3.448 (Simulation time: 01 hr 13 min 40 sec)
Heartbeat CPU 0 instructions: 1500000002 cycles: 397933175 heartbeat IPC: 3.576 cumulative IPC: 3.45 (Simulation time: 01 hr 14 min 02 sec)
Simulation finished CPU 0 instructions: 500000000 cycles: 144920368 cumulative IPC: 3.45 (Simulation time: 01 hr 14 min 02 sec)
Simulation complete CPU 0 instructions: 500000000 cycles: 144920368 cumulative IPC: 3.45 (Simulation time: 01 hr 14 min 02 sec)

ChampSim completed all CPUs

=== Simulation ===
CPU 0 runs traces/603.bwaves_s-1080B.champsimtrace.xz
Region of Interest Statistics

CPU 0 cumulative IPC: 3.45 instructions: 500000000 cycles: 144920368
CPU 0 Branch Prediction Accuracy: 99.04% MPKI: 1.387 Average ROB Occupancy at Mispredict: 124.3
Branch type MPKI
BRANCH_DIRECT_JUMP: 0.186
BRANCH_INDIRECT: 0
BRANCH_CONDITIONAL: 1.07
BRANCH_DIRECT_CALL: 0
BRANCH_INDIRECT_CALL: 0
BRANCH_RETURN: 0.131

LLC TOTAL        ACCESS:     328059 HIT:     156011 MISS:     172048
LLC LOAD         ACCESS:      15779 HIT:         15 MISS:      15764
LLC RFO          ACCESS:     156255 HIT:         14 MISS:     156241
LLC PREFETCH     ACCESS:          0 HIT:          0 MISS:          0
LLC WRITE        ACCESS:     156004 HIT:     155979 MISS:         25
LLC TRANSLATION  ACCESS:         21 HIT:          3 MISS:         18
LLC PREFETCH REQUESTED:          0 ISSUED:          0 USEFUL:          0 USELESS:          0
LLC AVERAGE MISS LATENCY: 409.6 cycles
cpu0_DTLB TOTAL        ACCESS:   82149159 HIT:   82125141 MISS:      24018
cpu0_DTLB LOAD         ACCESS:   82149159 HIT:   82125141 MISS:      24018
cpu0_DTLB RFO          ACCESS:          0 HIT:          0 MISS:          0
cpu0_DTLB PREFETCH     ACCESS:          0 HIT:          0 MISS:          0
cpu0_DTLB WRITE        ACCESS:          0 HIT:          0 MISS:          0
cpu0_DTLB TRANSLATION  ACCESS:          0 HIT:          0 MISS:          0
cpu0_DTLB PREFETCH REQUESTED:          0 ISSUED:          0 USEFUL:          0 USELESS:          0
cpu0_DTLB AVERAGE MISS LATENCY: 19.53 cycles
cpu0_ITLB TOTAL        ACCESS:    1896814 HIT:    1896814 MISS:          0
cpu0_ITLB LOAD         ACCESS:    1896814 HIT:    1896814 MISS:          0
cpu0_ITLB RFO          ACCESS:          0 HIT:          0 MISS:          0
cpu0_ITLB PREFETCH     ACCESS:          0 HIT:          0 MISS:          0
cpu0_ITLB WRITE        ACCESS:          0 HIT:          0 MISS:          0
cpu0_ITLB TRANSLATION  ACCESS:          0 HIT:          0 MISS:          0
cpu0_ITLB PREFETCH REQUESTED:          0 ISSUED:          0 USEFUL:          0 USELESS:          0
cpu0_ITLB AVERAGE MISS LATENCY: -nan cycles
cpu0_L1D TOTAL        ACCESS:  126273899 HIT:  125080935 MISS:    1192964
cpu0_L1D LOAD         ACCESS:  105156415 HIT:  105112918 MISS:      43497
cpu0_L1D RFO          ACCESS:          0 HIT:          0 MISS:          0
cpu0_L1D PREFETCH     ACCESS:          0 HIT:          0 MISS:          0
cpu0_L1D WRITE        ACCESS:   21114788 HIT:   19965586 MISS:    1149202
cpu0_L1D TRANSLATION  ACCESS:       2696 HIT:       2431 MISS:        265
cpu0_L1D PREFETCH REQUESTED:          0 ISSUED:          0 USEFUL:          0 USELESS:          0
cpu0_L1D AVERAGE MISS LATENCY: 59.31 cycles
cpu0_L1I TOTAL        ACCESS:    2198882 HIT:    2198882 MISS:          0
cpu0_L1I LOAD         ACCESS:    2198882 HIT:    2198882 MISS:          0
cpu0_L1I RFO          ACCESS:          0 HIT:          0 MISS:          0
cpu0_L1I PREFETCH     ACCESS:          0 HIT:          0 MISS:          0
cpu0_L1I WRITE        ACCESS:          0 HIT:          0 MISS:          0
cpu0_L1I TRANSLATION  ACCESS:          0 HIT:          0 MISS:          0
cpu0_L1I PREFETCH REQUESTED:          0 ISSUED:          0 USEFUL:          0 USELESS:          0
cpu0_L1I AVERAGE MISS LATENCY: -nan cycles
cpu0_L2C TOTAL        ACCESS:     331786 HIT:     159711 MISS:     172075
cpu0_L2C LOAD         ACCESS:      17006 HIT:       1227 MISS:      15779
cpu0_L2C RFO          ACCESS:     157522 HIT:       1267 MISS:     156255
cpu0_L2C PREFETCH     ACCESS:          0 HIT:          0 MISS:          0
cpu0_L2C WRITE        ACCESS:     156993 HIT:     156973 MISS:         20
cpu0_L2C TRANSLATION  ACCESS:        265 HIT:        244 MISS:         21
cpu0_L2C PREFETCH REQUESTED:          0 ISSUED:          0 USEFUL:          0 USELESS:          0
cpu0_L2C AVERAGE MISS LATENCY: 430.6 cycles
cpu0_STLB TOTAL        ACCESS:       2816 HIT:        125 MISS:       2691
cpu0_STLB LOAD         ACCESS:       2816 HIT:        125 MISS:       2691
cpu0_STLB RFO          ACCESS:          0 HIT:          0 MISS:          0
cpu0_STLB PREFETCH     ACCESS:          0 HIT:          0 MISS:          0
cpu0_STLB WRITE        ACCESS:          0 HIT:          0 MISS:          0
cpu0_STLB TRANSLATION  ACCESS:          0 HIT:          0 MISS:          0
cpu0_STLB PREFETCH REQUESTED:          0 ISSUED:          0 USEFUL:          0 USELESS:          0
cpu0_STLB AVERAGE MISS LATENCY: 209.9 cycles

DRAM Statistics

Channel 0 RQ ROW_BUFFER_HIT:      59756
  ROW_BUFFER_MISS:     112267
 AVG DBUS CONGESTED CYCLE: 3.931
WQ ROW_BUFFER_HIT: Channel 0 
  ROW_BUFFER_MISS:      53894
  FULL:     102038
