WARNING: physical memory size is smaller than virtual memory size.

*** ChampSim Multicore Out-of-Order Simulator ***
Warmup Instructions: 1000000000
Simulation Instructions: 500000000
Number of CPUs: 1
Page size: 4096

Off-chip DRAM Size: 4 GiB Channels: 1 Width: 64-bit Data Race: 3200 MT/s
Heartbeat CPU 0 instructions: 10000002 cycles: 2521302 heartbeat IPC: 3.966 cumulative IPC: 3.966 (Simulation time: 00 hr 00 min 34 sec)
Heartbeat CPU 0 instructions: 20000002 cycles: 5034840 heartbeat IPC: 3.978 cumulative IPC: 3.972 (Simulation time: 00 hr 01 min 09 sec)
Heartbeat CPU 0 instructions: 30000000 cycles: 7565447 heartbeat IPC: 3.952 cumulative IPC: 3.965 (Simulation time: 00 hr 01 min 43 sec)
Heartbeat CPU 0 instructions: 40000001 cycles: 10096094 heartbeat IPC: 3.952 cumulative IPC: 3.962 (Simulation time: 00 hr 02 min 16 sec)
Heartbeat CPU 0 instructions: 50000000 cycles: 12626365 heartbeat IPC: 3.952 cumulative IPC: 3.96 (Simulation time: 00 hr 02 min 35 sec)
Heartbeat CPU 0 instructions: 60000000 cycles: 15158767 heartbeat IPC: 3.949 cumulative IPC: 3.958 (Simulation time: 00 hr 03 min 00 sec)
Heartbeat CPU 0 instructions: 70000001 cycles: 17691394 heartbeat IPC: 3.948 cumulative IPC: 3.957 (Simulation time: 00 hr 03 min 34 sec)
Heartbeat CPU 0 instructions: 80000001 cycles: 20224040 heartbeat IPC: 3.948 cumulative IPC: 3.956 (Simulation time: 00 hr 04 min 07 sec)
Heartbeat CPU 0 instructions: 90000003 cycles: 22756362 heartbeat IPC: 3.949 cumulative IPC: 3.955 (Simulation time: 00 hr 04 min 41 sec)
Heartbeat CPU 0 instructions: 100000003 cycles: 25289918 heartbeat IPC: 3.947 cumulative IPC: 3.954 (Simulation time: 00 hr 05 min 14 sec)
Heartbeat CPU 0 instructions: 110000003 cycles: 27824252 heartbeat IPC: 3.946 cumulative IPC: 3.953 (Simulation time: 00 hr 05 min 47 sec)
Heartbeat CPU 0 instructions: 120000003 cycles: 30359173 heartbeat IPC: 3.945 cumulative IPC: 3.953 (Simulation time: 00 hr 06 min 21 sec)
Heartbeat CPU 0 instructions: 130000002 cycles: 32894397 heartbeat IPC: 3.944 cumulative IPC: 3.952 (Simulation time: 00 hr 06 min 54 sec)
Heartbeat CPU 0 instructions: 140000000 cycles: 35429301 heartbeat IPC: 3.945 cumulative IPC: 3.952 (Simulation time: 00 hr 07 min 28 sec)
Heartbeat CPU 0 instructions: 150000001 cycles: 37962905 heartbeat IPC: 3.947 cumulative IPC: 3.951 (Simulation time: 00 hr 07 min 51 sec)
Heartbeat CPU 0 instructions: 160000000 cycles: 40496894 heartbeat IPC: 3.946 cumulative IPC: 3.951 (Simulation time: 00 hr 08 min 09 sec)
Heartbeat CPU 0 instructions: 170000003 cycles: 43029745 heartbeat IPC: 3.948 cumulative IPC: 3.951 (Simulation time: 00 hr 08 min 27 sec)
Heartbeat CPU 0 instructions: 180000003 cycles: 45563671 heartbeat IPC: 3.946 cumulative IPC: 3.951 (Simulation time: 00 hr 08 min 44 sec)
Heartbeat CPU 0 instructions: 190000002 cycles: 48096841 heartbeat IPC: 3.948 cumulative IPC: 3.95 (Simulation time: 00 hr 09 min 01 sec)
Heartbeat CPU 0 instructions: 200000001 cycles: 50629857 heartbeat IPC: 3.948 cumulative IPC: 3.95 (Simulation time: 00 hr 09 min 19 sec)
Heartbeat CPU 0 instructions: 210000002 cycles: 53163681 heartbeat IPC: 3.947 cumulative IPC: 3.95 (Simulation time: 00 hr 09 min 37 sec)
Heartbeat CPU 0 instructions: 220000002 cycles: 55696523 heartbeat IPC: 3.948 cumulative IPC: 3.95 (Simulation time: 00 hr 09 min 54 sec)
Heartbeat CPU 0 instructions: 230000000 cycles: 58230219 heartbeat IPC: 3.947 cumulative IPC: 3.95 (Simulation time: 00 hr 10 min 12 sec)
Heartbeat CPU 0 instructions: 240000003 cycles: 60763466 heartbeat IPC: 3.948 cumulative IPC: 3.95 (Simulation time: 00 hr 10 min 30 sec)
Heartbeat CPU 0 instructions: 250000002 cycles: 63296632 heartbeat IPC: 3.948 cumulative IPC: 3.95 (Simulation time: 00 hr 10 min 47 sec)
Heartbeat CPU 0 instructions: 260000003 cycles: 65830158 heartbeat IPC: 3.947 cumulative IPC: 3.95 (Simulation time: 00 hr 11 min 04 sec)
Heartbeat CPU 0 instructions: 270000002 cycles: 68363212 heartbeat IPC: 3.948 cumulative IPC: 3.949 (Simulation time: 00 hr 11 min 22 sec)
Heartbeat CPU 0 instructions: 280000001 cycles: 70896595 heartbeat IPC: 3.947 cumulative IPC: 3.949 (Simulation time: 00 hr 11 min 39 sec)
Heartbeat CPU 0 instructions: 290000001 cycles: 73430115 heartbeat IPC: 3.947 cumulative IPC: 3.949 (Simulation time: 00 hr 11 min 57 sec)
Heartbeat CPU 0 instructions: 300000000 cycles: 75963271 heartbeat IPC: 3.948 cumulative IPC: 3.949 (Simulation time: 00 hr 12 min 14 sec)
Heartbeat CPU 0 instructions: 310000000 cycles: 78496715 heartbeat IPC: 3.947 cumulative IPC: 3.949 (Simulation time: 00 hr 12 min 32 sec)
Heartbeat CPU 0 instructions: 320000002 cycles: 81029921 heartbeat IPC: 3.948 cumulative IPC: 3.949 (Simulation time: 00 hr 12 min 49 sec)
Heartbeat CPU 0 instructions: 330000001 cycles: 83563643 heartbeat IPC: 3.947 cumulative IPC: 3.949 (Simulation time: 00 hr 13 min 06 sec)
Heartbeat CPU 0 instructions: 340000001 cycles: 86097484 heartbeat IPC: 3.947 cumulative IPC: 3.949 (Simulation time: 00 hr 13 min 24 sec)
Heartbeat CPU 0 instructions: 350000000 cycles: 88632322 heartbeat IPC: 3.945 cumulative IPC: 3.949 (Simulation time: 00 hr 13 min 41 sec)
Heartbeat CPU 0 instructions: 360000001 cycles: 91167661 heartbeat IPC: 3.944 cumulative IPC: 3.949 (Simulation time: 00 hr 13 min 59 sec)
Heartbeat CPU 0 instructions: 370000002 cycles: 93702447 heartbeat IPC: 3.945 cumulative IPC: 3.949 (Simulation time: 00 hr 14 min 16 sec)
Heartbeat CPU 0 instructions: 380000000 cycles: 96236686 heartbeat IPC: 3.946 cumulative IPC: 3.949 (Simulation time: 00 hr 14 min 33 sec)
Heartbeat CPU 0 instructions: 390000000 cycles: 98769766 heartbeat IPC: 3.948 cumulative IPC: 3.949 (Simulation time: 00 hr 14 min 51 sec)
Heartbeat CPU 0 instructions: 400000003 cycles: 101302475 heartbeat IPC: 3.948 cumulative IPC: 3.949 (Simulation time: 00 hr 15 min 08 sec)
Heartbeat CPU 0 instructions: 410000002 cycles: 103834851 heartbeat IPC: 3.949 cumulative IPC: 3.949 (Simulation time: 00 hr 15 min 26 sec)
Heartbeat CPU 0 instructions: 420000004 cycles: 106367435 heartbeat IPC: 3.949 cumulative IPC: 3.949 (Simulation time: 00 hr 15 min 43 sec)
Heartbeat CPU 0 instructions: 430000001 cycles: 108899418 heartbeat IPC: 3.949 cumulative IPC: 3.949 (Simulation time: 00 hr 16 min 00 sec)
Heartbeat CPU 0 instructions: 440000003 cycles: 111429786 heartbeat IPC: 3.952 cumulative IPC: 3.949 (Simulation time: 00 hr 16 min 18 sec)
Heartbeat CPU 0 instructions: 450000004 cycles: 113960235 heartbeat IPC: 3.952 cumulative IPC: 3.949 (Simulation time: 00 hr 16 min 35 sec)
Heartbeat CPU 0 instructions: 460000001 cycles: 116490738 heartbeat IPC: 3.952 cumulative IPC: 3.949 (Simulation time: 00 hr 16 min 53 sec)
Heartbeat CPU 0 instructions: 470000003 cycles: 119001111 heartbeat IPC: 3.983 cumulative IPC: 3.95 (Simulation time: 00 hr 17 min 12 sec)
Heartbeat CPU 0 instructions: 480000002 cycles: 121527084 heartbeat IPC: 3.959 cumulative IPC: 3.95 (Simulation time: 00 hr 17 min 30 sec)
Heartbeat CPU 0 instructions: 490000001 cycles: 124061256 heartbeat IPC: 3.946 cumulative IPC: 3.95 (Simulation time: 00 hr 17 min 47 sec)
Heartbeat CPU 0 instructions: 500000003 cycles: 126594483 heartbeat IPC: 3.948 cumulative IPC: 3.95 (Simulation time: 00 hr 18 min 05 sec)
Heartbeat CPU 0 instructions: 510000003 cycles: 129126354 heartbeat IPC: 3.95 cumulative IPC: 3.95 (Simulation time: 00 hr 18 min 22 sec)
Heartbeat CPU 0 instructions: 520000001 cycles: 131658471 heartbeat IPC: 3.949 cumulative IPC: 3.95 (Simulation time: 00 hr 18 min 40 sec)
Heartbeat CPU 0 instructions: 530000001 cycles: 134179872 heartbeat IPC: 3.966 cumulative IPC: 3.95 (Simulation time: 00 hr 18 min 58 sec)
Heartbeat CPU 0 instructions: 540000003 cycles: 136699817 heartbeat IPC: 3.968 cumulative IPC: 3.95 (Simulation time: 00 hr 19 min 16 sec)
Heartbeat CPU 0 instructions: 550000003 cycles: 139219856 heartbeat IPC: 3.968 cumulative IPC: 3.951 (Simulation time: 00 hr 19 min 34 sec)
Heartbeat CPU 0 instructions: 560000003 cycles: 141740174 heartbeat IPC: 3.968 cumulative IPC: 3.951 (Simulation time: 00 hr 19 min 52 sec)
Heartbeat CPU 0 instructions: 570000003 cycles: 144260201 heartbeat IPC: 3.968 cumulative IPC: 3.951 (Simulation time: 00 hr 20 min 10 sec)
Heartbeat CPU 0 instructions: 580000003 cycles: 146780255 heartbeat IPC: 3.968 cumulative IPC: 3.951 (Simulation time: 00 hr 20 min 28 sec)
Heartbeat CPU 0 instructions: 590000001 cycles: 149299660 heartbeat IPC: 3.969 cumulative IPC: 3.952 (Simulation time: 00 hr 20 min 46 sec)
Heartbeat CPU 0 instructions: 600000001 cycles: 151818687 heartbeat IPC: 3.97 cumulative IPC: 3.952 (Simulation time: 00 hr 21 min 04 sec)
Heartbeat CPU 0 instructions: 610000001 cycles: 154337701 heartbeat IPC: 3.97 cumulative IPC: 3.952 (Simulation time: 00 hr 21 min 23 sec)
Heartbeat CPU 0 instructions: 620000001 cycles: 156856707 heartbeat IPC: 3.97 cumulative IPC: 3.953 (Simulation time: 00 hr 21 min 41 sec)
Heartbeat CPU 0 instructions: 630000001 cycles: 159375711 heartbeat IPC: 3.97 cumulative IPC: 3.953 (Simulation time: 00 hr 21 min 59 sec)
Heartbeat CPU 0 instructions: 640000002 cycles: 161896586 heartbeat IPC: 3.967 cumulative IPC: 3.953 (Simulation time: 00 hr 22 min 17 sec)
Heartbeat CPU 0 instructions: 650000003 cycles: 164428319 heartbeat IPC: 3.95 cumulative IPC: 3.953 (Simulation time: 00 hr 22 min 34 sec)
Heartbeat CPU 0 instructions: 660000003 cycles: 166961440 heartbeat IPC: 3.948 cumulative IPC: 3.953 (Simulation time: 00 hr 22 min 52 sec)
Heartbeat CPU 0 instructions: 670000003 cycles: 169489114 heartbeat IPC: 3.956 cumulative IPC: 3.953 (Simulation time: 00 hr 23 min 09 sec)
Heartbeat CPU 0 instructions: 680000003 cycles: 172023284 heartbeat IPC: 3.946 cumulative IPC: 3.953 (Simulation time: 00 hr 23 min 27 sec)
Heartbeat CPU 0 instructions: 690000001 cycles: 174557899 heartbeat IPC: 3.945 cumulative IPC: 3.953 (Simulation time: 00 hr 23 min 45 sec)
Heartbeat CPU 0 instructions: 700000003 cycles: 177092522 heartbeat IPC: 3.945 cumulative IPC: 3.953 (Simulation time: 00 hr 24 min 02 sec)
Heartbeat CPU 0 instructions: 710000000 cycles: 179627036 heartbeat IPC: 3.946 cumulative IPC: 3.953 (Simulation time: 00 hr 24 min 20 sec)
Heartbeat CPU 0 instructions: 720000001 cycles: 182159725 heartbeat IPC: 3.948 cumulative IPC: 3.953 (Simulation time: 00 hr 24 min 37 sec)
Heartbeat CPU 0 instructions: 730000003 cycles: 184666936 heartbeat IPC: 3.988 cumulative IPC: 3.953 (Simulation time: 00 hr 24 min 57 sec)
Heartbeat CPU 0 instructions: 740000000 cycles: 187197094 heartbeat IPC: 3.952 cumulative IPC: 3.953 (Simulation time: 00 hr 25 min 14 sec)
Heartbeat CPU 0 instructions: 750000001 cycles: 189732248 heartbeat IPC: 3.945 cumulative IPC: 3.953 (Simulation time: 00 hr 25 min 32 sec)
Heartbeat CPU 0 instructions: 760000003 cycles: 192267121 heartbeat IPC: 3.945 cumulative IPC: 3.953 (Simulation time: 00 hr 25 min 49 sec)
Heartbeat CPU 0 instructions: 770000000 cycles: 194802294 heartbeat IPC: 3.945 cumulative IPC: 3.953 (Simulation time: 00 hr 26 min 07 sec)
Heartbeat CPU 0 instructions: 780000001 cycles: 197336353 heartbeat IPC: 3.946 cumulative IPC: 3.953 (Simulation time: 00 hr 26 min 24 sec)
Heartbeat CPU 0 instructions: 790000000 cycles: 199870214 heartbeat IPC: 3.947 cumulative IPC: 3.953 (Simulation time: 00 hr 26 min 42 sec)
Heartbeat CPU 0 instructions: 800000003 cycles: 202400628 heartbeat IPC: 3.952 cumulative IPC: 3.953 (Simulation time: 00 hr 26 min 59 sec)
Heartbeat CPU 0 instructions: 810000001 cycles: 204927262 heartbeat IPC: 3.958 cumulative IPC: 3.953 (Simulation time: 00 hr 27 min 17 sec)
Heartbeat CPU 0 instructions: 820000000 cycles: 207452726 heartbeat IPC: 3.96 cumulative IPC: 3.953 (Simulation time: 00 hr 27 min 35 sec)
Heartbeat CPU 0 instructions: 830000001 cycles: 209982934 heartbeat IPC: 3.952 cumulative IPC: 3.953 (Simulation time: 00 hr 27 min 52 sec)
Heartbeat CPU 0 instructions: 840000000 cycles: 212513112 heartbeat IPC: 3.952 cumulative IPC: 3.953 (Simulation time: 00 hr 28 min 10 sec)
Heartbeat CPU 0 instructions: 850000001 cycles: 215043316 heartbeat IPC: 3.952 cumulative IPC: 3.953 (Simulation time: 00 hr 28 min 28 sec)
Heartbeat CPU 0 instructions: 860000000 cycles: 217573511 heartbeat IPC: 3.952 cumulative IPC: 3.953 (Simulation time: 00 hr 28 min 46 sec)
Heartbeat CPU 0 instructions: 870000001 cycles: 220103717 heartbeat IPC: 3.952 cumulative IPC: 3.953 (Simulation time: 00 hr 29 min 03 sec)
Heartbeat CPU 0 instructions: 880000002 cycles: 222633933 heartbeat IPC: 3.952 cumulative IPC: 3.953 (Simulation time: 00 hr 29 min 21 sec)
Heartbeat CPU 0 instructions: 890000001 cycles: 225164092 heartbeat IPC: 3.952 cumulative IPC: 3.953 (Simulation time: 00 hr 29 min 39 sec)
Heartbeat CPU 0 instructions: 900000001 cycles: 227694242 heartbeat IPC: 3.952 cumulative IPC: 3.953 (Simulation time: 00 hr 29 min 56 sec)
Heartbeat CPU 0 instructions: 910000003 cycles: 230224391 heartbeat IPC: 3.952 cumulative IPC: 3.953 (Simulation time: 00 hr 30 min 14 sec)
Heartbeat CPU 0 instructions: 920000002 cycles: 232754558 heartbeat IPC: 3.952 cumulative IPC: 3.953 (Simulation time: 00 hr 30 min 31 sec)
Heartbeat CPU 0 instructions: 930000001 cycles: 235277431 heartbeat IPC: 3.964 cumulative IPC: 3.953 (Simulation time: 00 hr 30 min 49 sec)
Heartbeat CPU 0 instructions: 940000000 cycles: 237807877 heartbeat IPC: 3.952 cumulative IPC: 3.953 (Simulation time: 00 hr 31 min 07 sec)
Heartbeat CPU 0 instructions: 950000000 cycles: 240337116 heartbeat IPC: 3.954 cumulative IPC: 3.953 (Simulation time: 00 hr 31 min 25 sec)
Heartbeat CPU 0 instructions: 960000000 cycles: 242867792 heartbeat IPC: 3.952 cumulative IPC: 3.953 (Simulation time: 00 hr 31 min 42 sec)
Heartbeat CPU 0 instructions: 970000001 cycles: 245402150 heartbeat IPC: 3.946 cumulative IPC: 3.953 (Simulation time: 00 hr 32 min 00 sec)
Heartbeat CPU 0 instructions: 980000002 cycles: 247936961 heartbeat IPC: 3.945 cumulative IPC: 3.953 (Simulation time: 00 hr 32 min 17 sec)
Heartbeat CPU 0 instructions: 990000001 cycles: 250472085 heartbeat IPC: 3.945 cumulative IPC: 3.953 (Simulation time: 00 hr 32 min 35 sec)
Heartbeat CPU 0 instructions: 1000000002 cycles: 253007081 heartbeat IPC: 3.945 cumulative IPC: 3.952 (Simulation time: 00 hr 32 min 52 sec)
Warmup finished CPU 0 instructions: 1000000002 cycles: 253007082 cumulative IPC: 3.952 (Simulation time: 00 hr 32 min 52 sec)
Warmup complete CPU 0 instructions: 1000000002 cycles: 253007082 cumulative IPC: 3.952 (Simulation time: 00 hr 32 min 52 sec)
Heartbeat CPU 0 instructions: 1010000000 cycles: 256619810 heartbeat IPC: 2.768 cumulative IPC: 2.768 (Simulation time: 00 hr 33 min 18 sec)
Heartbeat CPU 0 instructions: 1020000001 cycles: 261340885 heartbeat IPC: 2.118 cumulative IPC: 2.4 (Simulation time: 00 hr 33 min 50 sec)
Heartbeat CPU 0 instructions: 1030000002 cycles: 264042872 heartbeat IPC: 3.701 cumulative IPC: 2.718 (Simulation time: 00 hr 34 min 10 sec)
Heartbeat CPU 0 instructions: 1040000003 cycles: 266744350 heartbeat IPC: 3.702 cumulative IPC: 2.912 (Simulation time: 00 hr 34 min 31 sec)
Heartbeat CPU 0 instructions: 1050000000 cycles: 269444619 heartbeat IPC: 3.703 cumulative IPC: 3.042 (Simulation time: 00 hr 34 min 52 sec)
Heartbeat CPU 0 instructions: 1060000003 cycles: 272252245 heartbeat IPC: 3.562 cumulative IPC: 3.118 (Simulation time: 00 hr 35 min 13 sec)
Heartbeat CPU 0 instructions: 1070000002 cycles: 275034305 heartbeat IPC: 3.594 cumulative IPC: 3.178 (Simulation time: 00 hr 35 min 35 sec)
Heartbeat CPU 0 instructions: 1080000001 cycles: 277811166 heartbeat IPC: 3.601 cumulative IPC: 3.225 (Simulation time: 00 hr 35 min 56 sec)
Heartbeat CPU 0 instructions: 1090000000 cycles: 280598607 heartbeat IPC: 3.588 cumulative IPC: 3.262 (Simulation time: 00 hr 36 min 18 sec)
Heartbeat CPU 0 instructions: 1100000001 cycles: 283373072 heartbeat IPC: 3.604 cumulative IPC: 3.293 (Simulation time: 00 hr 36 min 39 sec)
Heartbeat CPU 0 instructions: 1110000001 cycles: 286136334 heartbeat IPC: 3.619 cumulative IPC: 3.32 (Simulation time: 00 hr 37 min 00 sec)
Heartbeat CPU 0 instructions: 1120000003 cycles: 288906918 heartbeat IPC: 3.609 cumulative IPC: 3.343 (Simulation time: 00 hr 37 min 21 sec)
Heartbeat CPU 0 instructions: 1130000002 cycles: 291672149 heartbeat IPC: 3.616 cumulative IPC: 3.362 (Simulation time: 00 hr 37 min 43 sec)
Heartbeat CPU 0 instructions: 1140000003 cycles: 294423616 heartbeat IPC: 3.634 cumulative IPC: 3.38 (Simulation time: 00 hr 38 min 04 sec)
Heartbeat CPU 0 instructions: 1150000000 cycles: 297198483 heartbeat IPC: 3.604 cumulative IPC: 3.394 (Simulation time: 00 hr 38 min 26 sec)
Heartbeat CPU 0 instructions: 1160000000 cycles: 299960907 heartbeat IPC: 3.62 cumulative IPC: 3.408 (Simulation time: 00 hr 38 min 47 sec)
Heartbeat CPU 0 instructions: 1170000001 cycles: 302738939 heartbeat IPC: 3.6 cumulative IPC: 3.418 (Simulation time: 00 hr 39 min 08 sec)
Heartbeat CPU 0 instructions: 1180000000 cycles: 305494470 heartbeat IPC: 3.629 cumulative IPC: 3.429 (Simulation time: 00 hr 39 min 30 sec)
Heartbeat CPU 0 instructions: 1190000000 cycles: 308270377 heartbeat IPC: 3.602 cumulative IPC: 3.438 (Simulation time: 00 hr 39 min 51 sec)
Heartbeat CPU 0 instructions: 1200000001 cycles: 311035265 heartbeat IPC: 3.617 cumulative IPC: 3.447 (Simulation time: 00 hr 40 min 12 sec)
Heartbeat CPU 0 instructions: 1210000001 cycles: 313785716 heartbeat IPC: 3.636 cumulative IPC: 3.455 (Simulation time: 00 hr 40 min 33 sec)
Heartbeat CPU 0 instructions: 1220000000 cycles: 316555865 heartbeat IPC: 3.61 cumulative IPC: 3.462 (Simulation time: 00 hr 40 min 54 sec)
Heartbeat CPU 0 instructions: 1230000001 cycles: 319315045 heartbeat IPC: 3.624 cumulative IPC: 3.469 (Simulation time: 00 hr 41 min 15 sec)
Heartbeat CPU 0 instructions: 1240000004 cycles: 322088170 heartbeat IPC: 3.606 cumulative IPC: 3.474 (Simulation time: 00 hr 41 min 36 sec)
Heartbeat CPU 0 instructions: 1250000001 cycles: 324851806 heartbeat IPC: 3.618 cumulative IPC: 3.48 (Simulation time: 00 hr 41 min 58 sec)
Heartbeat CPU 0 instructions: 1260000001 cycles: 327611108 heartbeat IPC: 3.624 cumulative IPC: 3.485 (Simulation time: 00 hr 42 min 19 sec)
Heartbeat CPU 0 instructions: 1270000002 cycles: 330380410 heartbeat IPC: 3.611 cumulative IPC: 3.49 (Simulation time: 00 hr 42 min 40 sec)
Heartbeat CPU 0 instructions: 1280000000 cycles: 333149514 heartbeat IPC: 3.611 cumulative IPC: 3.494 (Simulation time: 00 hr 43 min 01 sec)
Heartbeat CPU 0 instructions: 1290000002 cycles: 335949442 heartbeat IPC: 3.572 cumulative IPC: 3.496 (Simulation time: 00 hr 43 min 22 sec)
Heartbeat CPU 0 instructions: 1300000004 cycles: 338733975 heartbeat IPC: 3.591 cumulative IPC: 3.499 (Simulation time: 00 hr 43 min 44 sec)
Heartbeat CPU 0 instructions: 1310000004 cycles: 341499569 heartbeat IPC: 3.616 cumulative IPC: 3.503 (Simulation time: 00 hr 44 min 05 sec)
Heartbeat CPU 0 instructions: 1320000000 cycles: 344311412 heartbeat IPC: 3.556 cumulative IPC: 3.505 (Simulation time: 00 hr 44 min 26 sec)
Heartbeat CPU 0 instructions: 1330000000 cycles: 347015858 heartbeat IPC: 3.698 cumulative IPC: 3.51 (Simulation time: 00 hr 44 min 47 sec)
Heartbeat CPU 0 instructions: 1340000004 cycles: 349717296 heartbeat IPC: 3.702 cumulative IPC: 3.516 (Simulation time: 00 hr 45 min 07 sec)
Heartbeat CPU 0 instructions: 1350000000 cycles: 352420290 heartbeat IPC: 3.7 cumulative IPC: 3.521 (Simulation time: 00 hr 45 min 28 sec)
Heartbeat CPU 0 instructions: 1360000004 cycles: 356414831 heartbeat IPC: 2.503 cumulative IPC: 3.481 (Simulation time: 00 hr 45 min 56 sec)
Heartbeat CPU 0 instructions: 1370000004 cycles: 360667671 heartbeat IPC: 2.351 cumulative IPC: 3.437 (Simulation time: 00 hr 46 min 25 sec)
Heartbeat CPU 0 instructions: 1380000000 cycles: 363387945 heartbeat IPC: 3.676 cumulative IPC: 3.443 (Simulation time: 00 hr 46 min 46 sec)
Heartbeat CPU 0 instructions: 1390000002 cycles: 366108552 heartbeat IPC: 3.676 cumulative IPC: 3.448 (Simulation time: 00 hr 47 min 07 sec)
Heartbeat CPU 0 instructions: 1400000004 cycles: 368829316 heartbeat IPC: 3.675 cumulative IPC: 3.454 (Simulation time: 00 hr 47 min 27 sec)
Heartbeat CPU 0 instructions: 1410000004 cycles: 371574249 heartbeat IPC: 3.643 cumulative IPC: 3.458 (Simulation time: 00 hr 47 min 48 sec)
Heartbeat CPU 0 instructions: 1420000002 cycles: 374289417 heartbeat IPC: 3.683 cumulative IPC: 3.463 (Simulation time: 00 hr 48 min 09 sec)
Heartbeat CPU 0 instructions: 1430000000 cycles: 377004948 heartbeat IPC: 3.683 cumulative IPC: 3.468 (Simulation time: 00 hr 48 min 30 sec)
Heartbeat CPU 0 instructions: 1440000000 cycles: 379720094 heartbeat IPC: 3.683 cumulative IPC: 3.472 (Simulation time: 00 hr 48 min 50 sec)
Heartbeat CPU 0 instructions: 1450000002 cycles: 382490581 heartbeat IPC: 3.609 cumulative IPC: 3.475 (Simulation time: 00 hr 49 min 12 sec)
Heartbeat CPU 0 instructions: 1460000003 cycles: 385223198 heartbeat IPC: 3.659 cumulative IPC: 3.479 (Simulation time: 00 hr 49 min 33 sec)
Heartbeat CPU 0 instructions: 1470000000 cycles: 388005056 heartbeat IPC: 3.595 cumulative IPC: 3.482 (Simulation time: 00 hr 49 min 54 sec)
Heartbeat CPU 0 instructions: 1480000000 cycles: 390824945 heartbeat IPC: 3.546 cumulative IPC: 3.483 (Simulation time: 00 hr 50 min 16 sec)
Heartbeat CPU 0 instructions: 1490000000 cycles: 393573990 heartbeat IPC: 3.638 cumulative IPC: 3.486 (Simulation time: 00 hr 50 min 37 sec)
Heartbeat CPU 0 instructions: 1500000002 cycles: 396332709 heartbeat IPC: 3.625 cumulative IPC: 3.489 (Simulation time: 00 hr 50 min 58 sec)
Simulation finished CPU 0 instructions: 500000000 cycles: 143325628 cumulative IPC: 3.489 (Simulation time: 00 hr 50 min 58 sec)
Simulation complete CPU 0 instructions: 500000000 cycles: 143325628 cumulative IPC: 3.489 (Simulation time: 00 hr 50 min 58 sec)

ChampSim completed all CPUs

=== Simulation ===
CPU 0 runs traces/603.bwaves_s-1080B.champsimtrace.xz
Region of Interest Statistics

CPU 0 cumulative IPC: 3.489 instructions: 500000000 cycles: 143325628
CPU 0 Branch Prediction Accuracy: 99.16% MPKI: 1.217 Average ROB Occupancy at Mispredict: 143.2
Branch type MPKI
BRANCH_DIRECT_JUMP: 0.186
BRANCH_INDIRECT: 0
BRANCH_CONDITIONAL: 0.899
BRANCH_DIRECT_CALL: 0
BRANCH_INDIRECT_CALL: 0
BRANCH_RETURN: 0.131

LLC TOTAL        ACCESS:     328046 HIT:     155998 MISS:     172048
LLC LOAD         ACCESS:      15784 HIT:         15 MISS:      15769
LLC RFO          ACCESS:     156250 HIT:         14 MISS:     156236
LLC PREFETCH     ACCESS:          0 HIT:          0 MISS:          0
LLC WRITE        ACCESS:     155991 HIT:     155966 MISS:         25
LLC TRANSLATION  ACCESS:         21 HIT:          3 MISS:         18
LLC PREFETCH REQUESTED:          0 ISSUED:          0 USEFUL:          0 USELESS:          0
LLC AVERAGE MISS LATENCY: 407.9 cycles
cpu0_DTLB TOTAL        ACCESS:   81788154 HIT:   81764147 MISS:      24007
cpu0_DTLB LOAD         ACCESS:   81788154 HIT:   81764147 MISS:      24007
cpu0_DTLB RFO          ACCESS:          0 HIT:          0 MISS:          0
cpu0_DTLB PREFETCH     ACCESS:          0 HIT:          0 MISS:          0
cpu0_DTLB WRITE        ACCESS:          0 HIT:          0 MISS:          0
cpu0_DTLB TRANSLATION  ACCESS:          0 HIT:          0 MISS:          0
cpu0_DTLB PREFETCH REQUESTED:          0 ISSUED:          0 USEFUL:          0 USELESS:          0
cpu0_DTLB AVERAGE MISS LATENCY: 19.6 cycles
cpu0_ITLB TOTAL        ACCESS:    1899375 HIT:    1899375 MISS:          0
cpu0_ITLB LOAD         ACCESS:    1899375 HIT:    1899375 MISS:          0
cpu0_ITLB RFO          ACCESS:          0 HIT:          0 MISS:          0
cpu0_ITLB PREFETCH     ACCESS:          0 HIT:          0 MISS:          0
cpu0_ITLB WRITE        ACCESS:          0 HIT:          0 MISS:          0
cpu0_ITLB TRANSLATION  ACCESS:          0 HIT:          0 MISS:          0
cpu0_ITLB PREFETCH REQUESTED:          0 ISSUED:          0 USEFUL:          0 USELESS:          0
cpu0_ITLB AVERAGE MISS LATENCY: -nan cycles
cpu0_L1D TOTAL        ACCESS:  125875597 HIT:  124683457 MISS:    1192140
cpu0_L1D LOAD         ACCESS:  104756025 HIT:  104712541 MISS:      43484
cpu0_L1D RFO          ACCESS:          0 HIT:          0 MISS:          0
cpu0_L1D PREFETCH     ACCESS:          0 HIT:          0 MISS:          0
cpu0_L1D WRITE        ACCESS:   21116876 HIT:   19968485 MISS:    1148391
cpu0_L1D TRANSLATION  ACCESS:       2696 HIT:       2431 MISS:        265
cpu0_L1D PREFETCH REQUESTED:          0 ISSUED:          0 USEFUL:          0 USELESS:          0
cpu0_L1D AVERAGE MISS LATENCY: 59.11 cycles
cpu0_L1I TOTAL        ACCESS:    2201015 HIT:    2201015 MISS:          0
cpu0_L1I LOAD         ACCESS:    2201015 HIT:    2201015 MISS:          0
cpu0_L1I RFO          ACCESS:          0 HIT:          0 MISS:          0
cpu0_L1I PREFETCH     ACCESS:          0 HIT:          0 MISS:          0
cpu0_L1I WRITE        ACCESS:          0 HIT:          0 MISS:          0
cpu0_L1I TRANSLATION  ACCESS:          0 HIT:          0 MISS:          0
cpu0_L1I PREFETCH REQUESTED:          0 ISSUED:          0 USEFUL:          0 USELESS:          0
cpu0_L1I AVERAGE MISS LATENCY: -nan cycles
cpu0_L2C TOTAL        ACCESS:     331531 HIT:     159456 MISS:     172075
cpu0_L2C LOAD         ACCESS:      17009 HIT:       1225 MISS:      15784
cpu0_L2C RFO          ACCESS:     157396 HIT:       1146 MISS:     156250
cpu0_L2C PREFETCH     ACCESS:          0 HIT:          0 MISS:          0
cpu0_L2C WRITE        ACCESS:     156861 HIT:     156841 MISS:         20
cpu0_L2C TRANSLATION  ACCESS:        265 HIT:        244 MISS:         21
cpu0_L2C PREFETCH REQUESTED:          0 ISSUED:          0 USEFUL:          0 USELESS:          0
cpu0_L2C AVERAGE MISS LATENCY: 428.8 cycles
cpu0_STLB TOTAL        ACCESS:       2816 HIT:        125 MISS:       2691
cpu0_STLB LOAD         ACCESS:       2816 HIT:        125 MISS:       2691
cpu0_STLB RFO          ACCESS:          0 HIT:          0 MISS:          0
cpu0_STLB PREFETCH     ACCESS:          0 HIT:          0 MISS:          0
cpu0_STLB WRITE        ACCESS:          0 HIT:          0 MISS:          0
cpu0_STLB TRANSLATION  ACCESS:          0 HIT:          0 MISS:          0
cpu0_STLB PREFETCH REQUESTED:          0 ISSUED:          0 USEFUL:          0 USELESS:          0
cpu0_STLB AVERAGE MISS LATENCY: 210.1 cycles

DRAM Statistics

Channel 0 RQ ROW_BUFFER_HIT:      59549
  ROW_BUFFER_MISS:     112474
 AVG DBUS CONGESTED CYCLE: 3.931
WQ ROW_BUFFER_HIT: Channel 0 
  ROW_BUFFER_MISS:      54068
  FULL:     101852

NOT_BRANCH: 0

BRANCH_DIRECT_JUMP: 16403078

BRANCH_INDIRECT: 1555774

BRANCH_CONDITIONAL: 194400119

BRANCH_DIRECT_CALL: 2643820

BRANCH_INDIRECT_CALL: 0

BRANCH_RETURN: 2643820

BRANCH_OTHER: 0
