WARNING: physical memory size is smaller than virtual memory size.

*** ChampSim Multicore Out-of-Order Simulator ***
Warmup Instructions: 1000000000
Simulation Instructions: 500000000
Number of CPUs: 1
Page size: 4096

Off-chip DRAM Size: 4 GiB Channels: 1 Width: 64-bit Data Race: 3200 MT/s
Heartbeat CPU 0 instructions: 10000002 cycles: 2521312 heartbeat IPC: 3.966 cumulative IPC: 3.966 (Simulation time: 00 hr 00 min 14 sec)
Heartbeat CPU 0 instructions: 20000002 cycles: 5034852 heartbeat IPC: 3.978 cumulative IPC: 3.972 (Simulation time: 00 hr 00 min 29 sec)
Heartbeat CPU 0 instructions: 30000000 cycles: 7565460 heartbeat IPC: 3.952 cumulative IPC: 3.965 (Simulation time: 00 hr 00 min 44 sec)
Heartbeat CPU 0 instructions: 40000001 cycles: 10096104 heartbeat IPC: 3.952 cumulative IPC: 3.962 (Simulation time: 00 hr 00 min 58 sec)
Heartbeat CPU 0 instructions: 50000000 cycles: 12626373 heartbeat IPC: 3.952 cumulative IPC: 3.96 (Simulation time: 00 hr 01 min 12 sec)
Heartbeat CPU 0 instructions: 60000000 cycles: 15158777 heartbeat IPC: 3.949 cumulative IPC: 3.958 (Simulation time: 00 hr 01 min 27 sec)
Heartbeat CPU 0 instructions: 70000001 cycles: 17691404 heartbeat IPC: 3.948 cumulative IPC: 3.957 (Simulation time: 00 hr 01 min 41 sec)
Heartbeat CPU 0 instructions: 80000001 cycles: 20224050 heartbeat IPC: 3.948 cumulative IPC: 3.956 (Simulation time: 00 hr 01 min 55 sec)
Heartbeat CPU 0 instructions: 90000003 cycles: 22756375 heartbeat IPC: 3.949 cumulative IPC: 3.955 (Simulation time: 00 hr 02 min 10 sec)
Heartbeat CPU 0 instructions: 100000003 cycles: 25289931 heartbeat IPC: 3.947 cumulative IPC: 3.954 (Simulation time: 00 hr 02 min 24 sec)
Heartbeat CPU 0 instructions: 110000003 cycles: 27824266 heartbeat IPC: 3.946 cumulative IPC: 3.953 (Simulation time: 00 hr 02 min 38 sec)
Heartbeat CPU 0 instructions: 120000003 cycles: 30359190 heartbeat IPC: 3.945 cumulative IPC: 3.953 (Simulation time: 00 hr 02 min 52 sec)
Heartbeat CPU 0 instructions: 130000002 cycles: 32894414 heartbeat IPC: 3.944 cumulative IPC: 3.952 (Simulation time: 00 hr 03 min 06 sec)
Heartbeat CPU 0 instructions: 140000000 cycles: 35429318 heartbeat IPC: 3.945 cumulative IPC: 3.952 (Simulation time: 00 hr 03 min 20 sec)
Heartbeat CPU 0 instructions: 150000001 cycles: 37962921 heartbeat IPC: 3.947 cumulative IPC: 3.951 (Simulation time: 00 hr 03 min 35 sec)
Heartbeat CPU 0 instructions: 160000000 cycles: 40496908 heartbeat IPC: 3.946 cumulative IPC: 3.951 (Simulation time: 00 hr 03 min 49 sec)
Heartbeat CPU 0 instructions: 170000003 cycles: 43029758 heartbeat IPC: 3.948 cumulative IPC: 3.951 (Simulation time: 00 hr 04 min 03 sec)
Heartbeat CPU 0 instructions: 180000003 cycles: 45563686 heartbeat IPC: 3.946 cumulative IPC: 3.951 (Simulation time: 00 hr 04 min 17 sec)
Heartbeat CPU 0 instructions: 190000002 cycles: 48096857 heartbeat IPC: 3.948 cumulative IPC: 3.95 (Simulation time: 00 hr 04 min 32 sec)
Heartbeat CPU 0 instructions: 200000001 cycles: 50629875 heartbeat IPC: 3.948 cumulative IPC: 3.95 (Simulation time: 00 hr 04 min 47 sec)
Heartbeat CPU 0 instructions: 210000002 cycles: 53163699 heartbeat IPC: 3.947 cumulative IPC: 3.95 (Simulation time: 00 hr 05 min 02 sec)
Heartbeat CPU 0 instructions: 220000002 cycles: 55696540 heartbeat IPC: 3.948 cumulative IPC: 3.95 (Simulation time: 00 hr 05 min 17 sec)
Heartbeat CPU 0 instructions: 230000000 cycles: 58230236 heartbeat IPC: 3.947 cumulative IPC: 3.95 (Simulation time: 00 hr 05 min 31 sec)
Heartbeat CPU 0 instructions: 240000003 cycles: 60763483 heartbeat IPC: 3.948 cumulative IPC: 3.95 (Simulation time: 00 hr 05 min 46 sec)
Heartbeat CPU 0 instructions: 250000002 cycles: 63296648 heartbeat IPC: 3.948 cumulative IPC: 3.95 (Simulation time: 00 hr 06 min 00 sec)
Heartbeat CPU 0 instructions: 260000003 cycles: 65830171 heartbeat IPC: 3.947 cumulative IPC: 3.95 (Simulation time: 00 hr 06 min 14 sec)
Heartbeat CPU 0 instructions: 270000002 cycles: 68363224 heartbeat IPC: 3.948 cumulative IPC: 3.949 (Simulation time: 00 hr 06 min 28 sec)
Heartbeat CPU 0 instructions: 280000001 cycles: 70896604 heartbeat IPC: 3.947 cumulative IPC: 3.949 (Simulation time: 00 hr 06 min 43 sec)
Heartbeat CPU 0 instructions: 290000001 cycles: 73430120 heartbeat IPC: 3.947 cumulative IPC: 3.949 (Simulation time: 00 hr 06 min 57 sec)
Heartbeat CPU 0 instructions: 300000000 cycles: 75963269 heartbeat IPC: 3.948 cumulative IPC: 3.949 (Simulation time: 00 hr 07 min 12 sec)
Heartbeat CPU 0 instructions: 310000000 cycles: 78496710 heartbeat IPC: 3.947 cumulative IPC: 3.949 (Simulation time: 00 hr 07 min 26 sec)
Heartbeat CPU 0 instructions: 320000002 cycles: 81029919 heartbeat IPC: 3.948 cumulative IPC: 3.949 (Simulation time: 00 hr 07 min 40 sec)
Heartbeat CPU 0 instructions: 330000001 cycles: 83563644 heartbeat IPC: 3.947 cumulative IPC: 3.949 (Simulation time: 00 hr 07 min 54 sec)
Heartbeat CPU 0 instructions: 340000001 cycles: 86097481 heartbeat IPC: 3.947 cumulative IPC: 3.949 (Simulation time: 00 hr 08 min 08 sec)
Heartbeat CPU 0 instructions: 350000000 cycles: 88632315 heartbeat IPC: 3.945 cumulative IPC: 3.949 (Simulation time: 00 hr 08 min 23 sec)
Heartbeat CPU 0 instructions: 360000001 cycles: 91167649 heartbeat IPC: 3.944 cumulative IPC: 3.949 (Simulation time: 00 hr 08 min 37 sec)
Heartbeat CPU 0 instructions: 370000002 cycles: 93702432 heartbeat IPC: 3.945 cumulative IPC: 3.949 (Simulation time: 00 hr 08 min 51 sec)
Heartbeat CPU 0 instructions: 380000000 cycles: 96236674 heartbeat IPC: 3.946 cumulative IPC: 3.949 (Simulation time: 00 hr 09 min 05 sec)
Heartbeat CPU 0 instructions: 390000000 cycles: 98769754 heartbeat IPC: 3.948 cumulative IPC: 3.949 (Simulation time: 00 hr 09 min 19 sec)
Heartbeat CPU 0 instructions: 400000003 cycles: 101302463 heartbeat IPC: 3.948 cumulative IPC: 3.949 (Simulation time: 00 hr 09 min 33 sec)
Heartbeat CPU 0 instructions: 410000002 cycles: 103834840 heartbeat IPC: 3.949 cumulative IPC: 3.949 (Simulation time: 00 hr 09 min 47 sec)
Heartbeat CPU 0 instructions: 420000004 cycles: 106367418 heartbeat IPC: 3.949 cumulative IPC: 3.949 (Simulation time: 00 hr 10 min 02 sec)
Heartbeat CPU 0 instructions: 430000001 cycles: 108899399 heartbeat IPC: 3.949 cumulative IPC: 3.949 (Simulation time: 00 hr 10 min 16 sec)
Heartbeat CPU 0 instructions: 440000003 cycles: 111429768 heartbeat IPC: 3.952 cumulative IPC: 3.949 (Simulation time: 00 hr 10 min 31 sec)
Heartbeat CPU 0 instructions: 450000004 cycles: 113960218 heartbeat IPC: 3.952 cumulative IPC: 3.949 (Simulation time: 00 hr 10 min 46 sec)
Heartbeat CPU 0 instructions: 460000001 cycles: 116490721 heartbeat IPC: 3.952 cumulative IPC: 3.949 (Simulation time: 00 hr 11 min 01 sec)
Heartbeat CPU 0 instructions: 470000003 cycles: 119001094 heartbeat IPC: 3.983 cumulative IPC: 3.95 (Simulation time: 00 hr 11 min 17 sec)
Heartbeat CPU 0 instructions: 480000002 cycles: 121527068 heartbeat IPC: 3.959 cumulative IPC: 3.95 (Simulation time: 00 hr 11 min 32 sec)
Heartbeat CPU 0 instructions: 490000001 cycles: 124061237 heartbeat IPC: 3.946 cumulative IPC: 3.95 (Simulation time: 00 hr 11 min 47 sec)
Heartbeat CPU 0 instructions: 500000003 cycles: 126594470 heartbeat IPC: 3.948 cumulative IPC: 3.95 (Simulation time: 00 hr 12 min 02 sec)
Heartbeat CPU 0 instructions: 510000003 cycles: 129126339 heartbeat IPC: 3.95 cumulative IPC: 3.95 (Simulation time: 00 hr 12 min 17 sec)
Heartbeat CPU 0 instructions: 520000001 cycles: 131658455 heartbeat IPC: 3.949 cumulative IPC: 3.95 (Simulation time: 00 hr 12 min 32 sec)
Heartbeat CPU 0 instructions: 530000001 cycles: 134179857 heartbeat IPC: 3.966 cumulative IPC: 3.95 (Simulation time: 00 hr 12 min 48 sec)
Heartbeat CPU 0 instructions: 540000003 cycles: 136699802 heartbeat IPC: 3.968 cumulative IPC: 3.95 (Simulation time: 00 hr 13 min 03 sec)
Heartbeat CPU 0 instructions: 550000003 cycles: 139219848 heartbeat IPC: 3.968 cumulative IPC: 3.951 (Simulation time: 00 hr 13 min 19 sec)
Heartbeat CPU 0 instructions: 560000003 cycles: 141740168 heartbeat IPC: 3.968 cumulative IPC: 3.951 (Simulation time: 00 hr 13 min 34 sec)
Heartbeat CPU 0 instructions: 570000003 cycles: 144260192 heartbeat IPC: 3.968 cumulative IPC: 3.951 (Simulation time: 00 hr 13 min 50 sec)
Heartbeat CPU 0 instructions: 580000003 cycles: 146780243 heartbeat IPC: 3.968 cumulative IPC: 3.951 (Simulation time: 00 hr 14 min 05 sec)
Heartbeat CPU 0 instructions: 590000001 cycles: 149299645 heartbeat IPC: 3.969 cumulative IPC: 3.952 (Simulation time: 00 hr 14 min 21 sec)
Heartbeat CPU 0 instructions: 600000001 cycles: 151818671 heartbeat IPC: 3.97 cumulative IPC: 3.952 (Simulation time: 00 hr 14 min 36 sec)
Heartbeat CPU 0 instructions: 610000001 cycles: 154337687 heartbeat IPC: 3.97 cumulative IPC: 3.952 (Simulation time: 00 hr 14 min 52 sec)
Heartbeat CPU 0 instructions: 620000001 cycles: 156856696 heartbeat IPC: 3.97 cumulative IPC: 3.953 (Simulation time: 00 hr 15 min 07 sec)
Heartbeat CPU 0 instructions: 630000001 cycles: 159375701 heartbeat IPC: 3.97 cumulative IPC: 3.953 (Simulation time: 00 hr 15 min 22 sec)
Heartbeat CPU 0 instructions: 640000002 cycles: 161896579 heartbeat IPC: 3.967 cumulative IPC: 3.953 (Simulation time: 00 hr 15 min 37 sec)
Heartbeat CPU 0 instructions: 650000003 cycles: 164428311 heartbeat IPC: 3.95 cumulative IPC: 3.953 (Simulation time: 00 hr 15 min 51 sec)
Heartbeat CPU 0 instructions: 660000003 cycles: 166961432 heartbeat IPC: 3.948 cumulative IPC: 3.953 (Simulation time: 00 hr 16 min 05 sec)
Heartbeat CPU 0 instructions: 670000003 cycles: 169489103 heartbeat IPC: 3.956 cumulative IPC: 3.953 (Simulation time: 00 hr 16 min 20 sec)
Heartbeat CPU 0 instructions: 680000003 cycles: 172023269 heartbeat IPC: 3.946 cumulative IPC: 3.953 (Simulation time: 00 hr 16 min 35 sec)
Heartbeat CPU 0 instructions: 690000001 cycles: 174557887 heartbeat IPC: 3.945 cumulative IPC: 3.953 (Simulation time: 00 hr 16 min 50 sec)
Heartbeat CPU 0 instructions: 700000003 cycles: 177092516 heartbeat IPC: 3.945 cumulative IPC: 3.953 (Simulation time: 00 hr 17 min 05 sec)
Heartbeat CPU 0 instructions: 710000000 cycles: 179627038 heartbeat IPC: 3.946 cumulative IPC: 3.953 (Simulation time: 00 hr 17 min 20 sec)
Heartbeat CPU 0 instructions: 720000001 cycles: 182159733 heartbeat IPC: 3.948 cumulative IPC: 3.953 (Simulation time: 00 hr 17 min 36 sec)
Heartbeat CPU 0 instructions: 730000003 cycles: 184666948 heartbeat IPC: 3.988 cumulative IPC: 3.953 (Simulation time: 00 hr 17 min 54 sec)
Heartbeat CPU 0 instructions: 740000000 cycles: 187197102 heartbeat IPC: 3.952 cumulative IPC: 3.953 (Simulation time: 00 hr 18 min 09 sec)
Heartbeat CPU 0 instructions: 750000001 cycles: 189732258 heartbeat IPC: 3.945 cumulative IPC: 3.953 (Simulation time: 00 hr 18 min 24 sec)
Heartbeat CPU 0 instructions: 760000003 cycles: 192267134 heartbeat IPC: 3.945 cumulative IPC: 3.953 (Simulation time: 00 hr 18 min 39 sec)
Heartbeat CPU 0 instructions: 770000000 cycles: 194802311 heartbeat IPC: 3.944 cumulative IPC: 3.953 (Simulation time: 00 hr 18 min 55 sec)
Heartbeat CPU 0 instructions: 780000001 cycles: 197336371 heartbeat IPC: 3.946 cumulative IPC: 3.953 (Simulation time: 00 hr 19 min 10 sec)
Heartbeat CPU 0 instructions: 790000000 cycles: 199870232 heartbeat IPC: 3.947 cumulative IPC: 3.953 (Simulation time: 00 hr 19 min 26 sec)
Heartbeat CPU 0 instructions: 800000003 cycles: 202400645 heartbeat IPC: 3.952 cumulative IPC: 3.953 (Simulation time: 00 hr 19 min 41 sec)
Heartbeat CPU 0 instructions: 810000001 cycles: 204927277 heartbeat IPC: 3.958 cumulative IPC: 3.953 (Simulation time: 00 hr 19 min 56 sec)
Heartbeat CPU 0 instructions: 820000000 cycles: 207452740 heartbeat IPC: 3.96 cumulative IPC: 3.953 (Simulation time: 00 hr 20 min 12 sec)
Heartbeat CPU 0 instructions: 830000001 cycles: 209982943 heartbeat IPC: 3.952 cumulative IPC: 3.953 (Simulation time: 00 hr 20 min 28 sec)
Heartbeat CPU 0 instructions: 840000000 cycles: 212513119 heartbeat IPC: 3.952 cumulative IPC: 3.953 (Simulation time: 00 hr 20 min 44 sec)
Heartbeat CPU 0 instructions: 850000001 cycles: 215043324 heartbeat IPC: 3.952 cumulative IPC: 3.953 (Simulation time: 00 hr 21 min 00 sec)
Heartbeat CPU 0 instructions: 860000000 cycles: 217573515 heartbeat IPC: 3.952 cumulative IPC: 3.953 (Simulation time: 00 hr 21 min 16 sec)
Heartbeat CPU 0 instructions: 870000001 cycles: 220103725 heartbeat IPC: 3.952 cumulative IPC: 3.953 (Simulation time: 00 hr 21 min 32 sec)
Heartbeat CPU 0 instructions: 880000002 cycles: 222633940 heartbeat IPC: 3.952 cumulative IPC: 3.953 (Simulation time: 00 hr 21 min 47 sec)
Heartbeat CPU 0 instructions: 890000001 cycles: 225164092 heartbeat IPC: 3.952 cumulative IPC: 3.953 (Simulation time: 00 hr 22 min 02 sec)
Heartbeat CPU 0 instructions: 900000001 cycles: 227694246 heartbeat IPC: 3.952 cumulative IPC: 3.953 (Simulation time: 00 hr 22 min 17 sec)
Heartbeat CPU 0 instructions: 910000003 cycles: 230224397 heartbeat IPC: 3.952 cumulative IPC: 3.953 (Simulation time: 00 hr 22 min 31 sec)
Heartbeat CPU 0 instructions: 920000002 cycles: 232754563 heartbeat IPC: 3.952 cumulative IPC: 3.953 (Simulation time: 00 hr 22 min 45 sec)
Heartbeat CPU 0 instructions: 930000001 cycles: 235277433 heartbeat IPC: 3.964 cumulative IPC: 3.953 (Simulation time: 00 hr 23 min 00 sec)
Heartbeat CPU 0 instructions: 940000000 cycles: 237807876 heartbeat IPC: 3.952 cumulative IPC: 3.953 (Simulation time: 00 hr 23 min 15 sec)
Heartbeat CPU 0 instructions: 950000000 cycles: 240337116 heartbeat IPC: 3.954 cumulative IPC: 3.953 (Simulation time: 00 hr 23 min 29 sec)
Heartbeat CPU 0 instructions: 960000000 cycles: 242867792 heartbeat IPC: 3.952 cumulative IPC: 3.953 (Simulation time: 00 hr 23 min 44 sec)
Heartbeat CPU 0 instructions: 970000001 cycles: 245402144 heartbeat IPC: 3.946 cumulative IPC: 3.953 (Simulation time: 00 hr 23 min 58 sec)
Heartbeat CPU 0 instructions: 980000002 cycles: 247936959 heartbeat IPC: 3.945 cumulative IPC: 3.953 (Simulation time: 00 hr 24 min 13 sec)
Heartbeat CPU 0 instructions: 990000001 cycles: 250472086 heartbeat IPC: 3.945 cumulative IPC: 3.953 (Simulation time: 00 hr 24 min 27 sec)
Heartbeat CPU 0 instructions: 1000000002 cycles: 253007081 heartbeat IPC: 3.945 cumulative IPC: 3.952 (Simulation time: 00 hr 24 min 41 sec)
Warmup finished CPU 0 instructions: 1000000002 cycles: 253007082 cumulative IPC: 3.952 (Simulation time: 00 hr 24 min 41 sec)
Warmup complete CPU 0 instructions: 1000000002 cycles: 253007082 cumulative IPC: 3.952 (Simulation time: 00 hr 24 min 41 sec)
Heartbeat CPU 0 instructions: 1010000000 cycles: 256617290 heartbeat IPC: 2.77 cumulative IPC: 2.77 (Simulation time: 00 hr 25 min 03 sec)
Heartbeat CPU 0 instructions: 1020000001 cycles: 261339624 heartbeat IPC: 2.118 cumulative IPC: 2.4 (Simulation time: 00 hr 25 min 30 sec)
Heartbeat CPU 0 instructions: 1030000002 cycles: 264041685 heartbeat IPC: 3.701 cumulative IPC: 2.719 (Simulation time: 00 hr 25 min 47 sec)
Heartbeat CPU 0 instructions: 1040000003 cycles: 266743328 heartbeat IPC: 3.701 cumulative IPC: 2.912 (Simulation time: 00 hr 26 min 04 sec)
Heartbeat CPU 0 instructions: 1050000000 cycles: 269443516 heartbeat IPC: 3.703 cumulative IPC: 3.042 (Simulation time: 00 hr 26 min 21 sec)
Heartbeat CPU 0 instructions: 1060000003 cycles: 272251221 heartbeat IPC: 3.562 cumulative IPC: 3.118 (Simulation time: 00 hr 26 min 39 sec)
Heartbeat CPU 0 instructions: 1070000002 cycles: 275034613 heartbeat IPC: 3.593 cumulative IPC: 3.178 (Simulation time: 00 hr 26 min 57 sec)
Heartbeat CPU 0 instructions: 1080000001 cycles: 277812114 heartbeat IPC: 3.6 cumulative IPC: 3.225 (Simulation time: 00 hr 27 min 14 sec)
Heartbeat CPU 0 instructions: 1090000000 cycles: 280598537 heartbeat IPC: 3.589 cumulative IPC: 3.262 (Simulation time: 00 hr 27 min 31 sec)
Heartbeat CPU 0 instructions: 1100000001 cycles: 283374152 heartbeat IPC: 3.603 cumulative IPC: 3.293 (Simulation time: 00 hr 27 min 49 sec)
Heartbeat CPU 0 instructions: 1110000001 cycles: 286138376 heartbeat IPC: 3.618 cumulative IPC: 3.32 (Simulation time: 00 hr 28 min 06 sec)
Heartbeat CPU 0 instructions: 1120000003 cycles: 288910368 heartbeat IPC: 3.608 cumulative IPC: 3.342 (Simulation time: 00 hr 28 min 23 sec)
Heartbeat CPU 0 instructions: 1130000002 cycles: 291677701 heartbeat IPC: 3.614 cumulative IPC: 3.362 (Simulation time: 00 hr 28 min 41 sec)
Heartbeat CPU 0 instructions: 1140000003 cycles: 294430677 heartbeat IPC: 3.632 cumulative IPC: 3.38 (Simulation time: 00 hr 28 min 58 sec)
Heartbeat CPU 0 instructions: 1150000000 cycles: 297207156 heartbeat IPC: 3.602 cumulative IPC: 3.394 (Simulation time: 00 hr 29 min 15 sec)
Heartbeat CPU 0 instructions: 1160000000 cycles: 299970916 heartbeat IPC: 3.618 cumulative IPC: 3.407 (Simulation time: 00 hr 29 min 32 sec)
Heartbeat CPU 0 instructions: 1170000001 cycles: 302749259 heartbeat IPC: 3.599 cumulative IPC: 3.418 (Simulation time: 00 hr 29 min 50 sec)
Heartbeat CPU 0 instructions: 1180000000 cycles: 305506129 heartbeat IPC: 3.627 cumulative IPC: 3.429 (Simulation time: 00 hr 30 min 07 sec)
Heartbeat CPU 0 instructions: 1190000000 cycles: 308282797 heartbeat IPC: 3.601 cumulative IPC: 3.437 (Simulation time: 00 hr 30 min 24 sec)
Heartbeat CPU 0 instructions: 1200000001 cycles: 311049193 heartbeat IPC: 3.615 cumulative IPC: 3.446 (Simulation time: 00 hr 30 min 42 sec)
Heartbeat CPU 0 instructions: 1210000001 cycles: 313800173 heartbeat IPC: 3.635 cumulative IPC: 3.454 (Simulation time: 00 hr 30 min 59 sec)
Heartbeat CPU 0 instructions: 1220000000 cycles: 316571017 heartbeat IPC: 3.609 cumulative IPC: 3.461 (Simulation time: 00 hr 31 min 16 sec)
Heartbeat CPU 0 instructions: 1230000001 cycles: 319331614 heartbeat IPC: 3.622 cumulative IPC: 3.468 (Simulation time: 00 hr 31 min 34 sec)
Heartbeat CPU 0 instructions: 1240000004 cycles: 322107049 heartbeat IPC: 3.603 cumulative IPC: 3.473 (Simulation time: 00 hr 31 min 52 sec)
Heartbeat CPU 0 instructions: 1250000004 cycles: 324872254 heartbeat IPC: 3.616 cumulative IPC: 3.479 (Simulation time: 00 hr 32 min 09 sec)
Heartbeat CPU 0 instructions: 1260000001 cycles: 327632811 heartbeat IPC: 3.622 cumulative IPC: 3.484 (Simulation time: 00 hr 32 min 26 sec)
Heartbeat CPU 0 instructions: 1270000002 cycles: 330403555 heartbeat IPC: 3.609 cumulative IPC: 3.489 (Simulation time: 00 hr 32 min 44 sec)
Heartbeat CPU 0 instructions: 1280000000 cycles: 333174207 heartbeat IPC: 3.609 cumulative IPC: 3.493 (Simulation time: 00 hr 33 min 01 sec)
Heartbeat CPU 0 instructions: 1290000002 cycles: 335976727 heartbeat IPC: 3.568 cumulative IPC: 3.495 (Simulation time: 00 hr 33 min 19 sec)
Heartbeat CPU 0 instructions: 1300000004 cycles: 338762765 heartbeat IPC: 3.589 cumulative IPC: 3.498 (Simulation time: 00 hr 33 min 36 sec)
Heartbeat CPU 0 instructions: 1310000004 cycles: 341529298 heartbeat IPC: 3.615 cumulative IPC: 3.502 (Simulation time: 00 hr 33 min 53 sec)
Heartbeat CPU 0 instructions: 1320000000 cycles: 344342003 heartbeat IPC: 3.555 cumulative IPC: 3.504 (Simulation time: 00 hr 34 min 11 sec)
Heartbeat CPU 0 instructions: 1330000000 cycles: 347046350 heartbeat IPC: 3.698 cumulative IPC: 3.509 (Simulation time: 00 hr 34 min 28 sec)
Heartbeat CPU 0 instructions: 1340000004 cycles: 349747829 heartbeat IPC: 3.702 cumulative IPC: 3.515 (Simulation time: 00 hr 34 min 45 sec)
Heartbeat CPU 0 instructions: 1350000000 cycles: 352450855 heartbeat IPC: 3.7 cumulative IPC: 3.52 (Simulation time: 00 hr 35 min 02 sec)
Heartbeat CPU 0 instructions: 1360000004 cycles: 356426068 heartbeat IPC: 2.516 cumulative IPC: 3.481 (Simulation time: 00 hr 35 min 24 sec)
Heartbeat CPU 0 instructions: 1370000004 cycles: 360682918 heartbeat IPC: 2.349 cumulative IPC: 3.436 (Simulation time: 00 hr 35 min 49 sec)
Heartbeat CPU 0 instructions: 1380000000 cycles: 363404348 heartbeat IPC: 3.675 cumulative IPC: 3.442 (Simulation time: 00 hr 36 min 06 sec)
Heartbeat CPU 0 instructions: 1390000002 cycles: 366125973 heartbeat IPC: 3.674 cumulative IPC: 3.448 (Simulation time: 00 hr 36 min 23 sec)
Heartbeat CPU 0 instructions: 1400000004 cycles: 368847965 heartbeat IPC: 3.674 cumulative IPC: 3.453 (Simulation time: 00 hr 36 min 40 sec)
Heartbeat CPU 0 instructions: 1410000004 cycles: 371594902 heartbeat IPC: 3.64 cumulative IPC: 3.457 (Simulation time: 00 hr 36 min 57 sec)
Heartbeat CPU 0 instructions: 1420000002 cycles: 374310967 heartbeat IPC: 3.682 cumulative IPC: 3.462 (Simulation time: 00 hr 37 min 14 sec)
Heartbeat CPU 0 instructions: 1430000000 cycles: 377027122 heartbeat IPC: 3.682 cumulative IPC: 3.467 (Simulation time: 00 hr 37 min 31 sec)
Heartbeat CPU 0 instructions: 1440000000 cycles: 379742902 heartbeat IPC: 3.682 cumulative IPC: 3.472 (Simulation time: 00 hr 37 min 48 sec)
Heartbeat CPU 0 instructions: 1450000002 cycles: 382515853 heartbeat IPC: 3.606 cumulative IPC: 3.475 (Simulation time: 00 hr 38 min 05 sec)
Heartbeat CPU 0 instructions: 1460000003 cycles: 385249548 heartbeat IPC: 3.658 cumulative IPC: 3.478 (Simulation time: 00 hr 38 min 23 sec)
Heartbeat CPU 0 instructions: 1470000000 cycles: 388028046 heartbeat IPC: 3.599 cumulative IPC: 3.481 (Simulation time: 00 hr 38 min 40 sec)
Heartbeat CPU 0 instructions: 1480000000 cycles: 390844978 heartbeat IPC: 3.55 cumulative IPC: 3.482 (Simulation time: 00 hr 38 min 58 sec)
Heartbeat CPU 0 instructions: 1490000000 cycles: 393593126 heartbeat IPC: 3.639 cumulative IPC: 3.485 (Simulation time: 00 hr 39 min 15 sec)
Heartbeat CPU 0 instructions: 1500000002 cycles: 396350349 heartbeat IPC: 3.627 cumulative IPC: 3.488 (Simulation time: 00 hr 39 min 33 sec)
Simulation finished CPU 0 instructions: 500000000 cycles: 143343268 cumulative IPC: 3.488 (Simulation time: 00 hr 39 min 33 sec)
Simulation complete CPU 0 instructions: 500000000 cycles: 143343268 cumulative IPC: 3.488 (Simulation time: 00 hr 39 min 33 sec)

ChampSim completed all CPUs

=== Simulation ===
CPU 0 runs traces/603.bwaves_s-1080B.champsimtrace.xz
Region of Interest Statistics

CPU 0 cumulative IPC: 3.488 instructions: 500000000 cycles: 143343268
CPU 0 Branch Prediction Accuracy: 99.16% MPKI: 1.217 Average ROB Occupancy at Mispredict: 142.3
Branch type MPKI
BRANCH_DIRECT_JUMP: 0.186
BRANCH_INDIRECT: 0
BRANCH_CONDITIONAL: 0.899
BRANCH_DIRECT_CALL: 0
BRANCH_INDIRECT_CALL: 0
BRANCH_RETURN: 0.131

LLC TOTAL        ACCESS:     328048 HIT:     155999 MISS:     172049
LLC LOAD         ACCESS:      15780 HIT:         15 MISS:      15765
LLC RFO          ACCESS:     156254 HIT:         14 MISS:     156240
LLC PREFETCH     ACCESS:          0 HIT:          0 MISS:          0
LLC WRITE        ACCESS:     155993 HIT:     155967 MISS:         26
LLC TRANSLATION  ACCESS:         21 HIT:          3 MISS:         18
LLC PREFETCH REQUESTED:          0 ISSUED:          0 USEFUL:          0 USELESS:          0
LLC AVERAGE MISS LATENCY: 408.5 cycles
cpu0_DTLB TOTAL        ACCESS:   81756130 HIT:   81732112 MISS:      24018
cpu0_DTLB LOAD         ACCESS:   81756130 HIT:   81732112 MISS:      24018
cpu0_DTLB RFO          ACCESS:          0 HIT:          0 MISS:          0
cpu0_DTLB PREFETCH     ACCESS:          0 HIT:          0 MISS:          0
cpu0_DTLB WRITE        ACCESS:          0 HIT:          0 MISS:          0
cpu0_DTLB TRANSLATION  ACCESS:          0 HIT:          0 MISS:          0
cpu0_DTLB PREFETCH REQUESTED:          0 ISSUED:          0 USEFUL:          0 USELESS:          0
cpu0_DTLB AVERAGE MISS LATENCY: 19.57 cycles
cpu0_ITLB TOTAL        ACCESS:    1899433 HIT:    1899433 MISS:          0
cpu0_ITLB LOAD         ACCESS:    1899433 HIT:    1899433 MISS:          0
cpu0_ITLB RFO          ACCESS:          0 HIT:          0 MISS:          0
cpu0_ITLB PREFETCH     ACCESS:          0 HIT:          0 MISS:          0
cpu0_ITLB WRITE        ACCESS:          0 HIT:          0 MISS:          0
cpu0_ITLB TRANSLATION  ACCESS:          0 HIT:          0 MISS:          0
cpu0_ITLB PREFETCH REQUESTED:          0 ISSUED:          0 USEFUL:          0 USELESS:          0
cpu0_ITLB AVERAGE MISS LATENCY: -nan cycles
cpu0_L1D TOTAL        ACCESS:  125745283 HIT:  124552833 MISS:    1192450
cpu0_L1D LOAD         ACCESS:  104626186 HIT:  104582681 MISS:      43505
cpu0_L1D RFO          ACCESS:          0 HIT:          0 MISS:          0
cpu0_L1D PREFETCH     ACCESS:          0 HIT:          0 MISS:          0
cpu0_L1D WRITE        ACCESS:   21116401 HIT:   19967721 MISS:    1148680
cpu0_L1D TRANSLATION  ACCESS:       2696 HIT:       2431 MISS:        265
cpu0_L1D PREFETCH REQUESTED:          0 ISSUED:          0 USEFUL:          0 USELESS:          0
cpu0_L1D AVERAGE MISS LATENCY: 59.18 cycles
cpu0_L1I TOTAL        ACCESS:    2201091 HIT:    2201091 MISS:          0
cpu0_L1I LOAD         ACCESS:    2201091 HIT:    2201091 MISS:          0
cpu0_L1I RFO          ACCESS:          0 HIT:          0 MISS:          0
cpu0_L1I PREFETCH     ACCESS:          0 HIT:          0 MISS:          0
cpu0_L1I WRITE        ACCESS:          0 HIT:          0 MISS:          0
cpu0_L1I TRANSLATION  ACCESS:          0 HIT:          0 MISS:          0
cpu0_L1I PREFETCH REQUESTED:          0 ISSUED:          0 USEFUL:          0 USELESS:          0
cpu0_L1I AVERAGE MISS LATENCY: -nan cycles
cpu0_L2C TOTAL        ACCESS:     331538 HIT:     159463 MISS:     172075
cpu0_L2C LOAD         ACCESS:      17007 HIT:       1227 MISS:      15780
cpu0_L2C RFO          ACCESS:     157401 HIT:       1147 MISS:     156254
cpu0_L2C PREFETCH     ACCESS:          0 HIT:          0 MISS:          0
cpu0_L2C WRITE        ACCESS:     156865 HIT:     156845 MISS:         20
cpu0_L2C TRANSLATION  ACCESS:        265 HIT:        244 MISS:         21
cpu0_L2C PREFETCH REQUESTED:          0 ISSUED:          0 USEFUL:          0 USELESS:          0
cpu0_L2C AVERAGE MISS LATENCY: 429.5 cycles
cpu0_STLB TOTAL        ACCESS:       2816 HIT:        125 MISS:       2691
cpu0_STLB LOAD         ACCESS:       2816 HIT:        125 MISS:       2691
cpu0_STLB RFO          ACCESS:          0 HIT:          0 MISS:          0
cpu0_STLB PREFETCH     ACCESS:          0 HIT:          0 MISS:          0
cpu0_STLB WRITE        ACCESS:          0 HIT:          0 MISS:          0
cpu0_STLB TRANSLATION  ACCESS:          0 HIT:          0 MISS:          0
cpu0_STLB PREFETCH REQUESTED:          0 ISSUED:          0 USEFUL:          0 USELESS:          0
cpu0_STLB AVERAGE MISS LATENCY: 209.9 cycles

DRAM Statistics

Channel 0 RQ ROW_BUFFER_HIT:      59691
  ROW_BUFFER_MISS:     112332
 AVG DBUS CONGESTED CYCLE: 3.931
WQ ROW_BUFFER_HIT: Channel 0 
  ROW_BUFFER_MISS:      53953
  FULL:     101968
