WARNING: physical memory size is smaller than virtual memory size.

*** ChampSim Multicore Out-of-Order Simulator ***
Warmup Instructions: 1000000000
Simulation Instructions: 500000000
Number of CPUs: 1
Page size: 4096

Off-chip DRAM Size: 4 GiB Channels: 1 Width: 64-bit Data Race: 3200 MT/s
Heartbeat CPU 0 instructions: 10000002 cycles: 2521281 heartbeat IPC: 3.966 cumulative IPC: 3.966 (Simulation time: 00 hr 00 min 15 sec)
Heartbeat CPU 0 instructions: 20000002 cycles: 5034809 heartbeat IPC: 3.978 cumulative IPC: 3.972 (Simulation time: 00 hr 00 min 31 sec)
Heartbeat CPU 0 instructions: 30000000 cycles: 7565394 heartbeat IPC: 3.952 cumulative IPC: 3.965 (Simulation time: 00 hr 00 min 46 sec)
Heartbeat CPU 0 instructions: 40000001 cycles: 10095987 heartbeat IPC: 3.952 cumulative IPC: 3.962 (Simulation time: 00 hr 01 min 02 sec)
Heartbeat CPU 0 instructions: 50000000 cycles: 12626207 heartbeat IPC: 3.952 cumulative IPC: 3.96 (Simulation time: 00 hr 01 min 17 sec)
Heartbeat CPU 0 instructions: 60000000 cycles: 15158578 heartbeat IPC: 3.949 cumulative IPC: 3.958 (Simulation time: 00 hr 01 min 34 sec)
Heartbeat CPU 0 instructions: 70000001 cycles: 17691161 heartbeat IPC: 3.949 cumulative IPC: 3.957 (Simulation time: 00 hr 01 min 52 sec)
Heartbeat CPU 0 instructions: 80000001 cycles: 20223753 heartbeat IPC: 3.949 cumulative IPC: 3.956 (Simulation time: 00 hr 02 min 09 sec)
Heartbeat CPU 0 instructions: 90000003 cycles: 22756030 heartbeat IPC: 3.949 cumulative IPC: 3.955 (Simulation time: 00 hr 02 min 27 sec)
Heartbeat CPU 0 instructions: 100000003 cycles: 25289522 heartbeat IPC: 3.947 cumulative IPC: 3.954 (Simulation time: 00 hr 02 min 44 sec)
Heartbeat CPU 0 instructions: 110000003 cycles: 27823818 heartbeat IPC: 3.946 cumulative IPC: 3.953 (Simulation time: 00 hr 03 min 01 sec)
Heartbeat CPU 0 instructions: 120000003 cycles: 30358701 heartbeat IPC: 3.945 cumulative IPC: 3.953 (Simulation time: 00 hr 03 min 19 sec)
Heartbeat CPU 0 instructions: 130000002 cycles: 32893884 heartbeat IPC: 3.944 cumulative IPC: 3.952 (Simulation time: 00 hr 03 min 36 sec)
Heartbeat CPU 0 instructions: 140000000 cycles: 35428766 heartbeat IPC: 3.945 cumulative IPC: 3.952 (Simulation time: 00 hr 03 min 53 sec)
Heartbeat CPU 0 instructions: 150000001 cycles: 37962336 heartbeat IPC: 3.947 cumulative IPC: 3.951 (Simulation time: 00 hr 04 min 11 sec)
Heartbeat CPU 0 instructions: 160000000 cycles: 40496313 heartbeat IPC: 3.946 cumulative IPC: 3.951 (Simulation time: 00 hr 04 min 28 sec)
Heartbeat CPU 0 instructions: 170000003 cycles: 43029141 heartbeat IPC: 3.948 cumulative IPC: 3.951 (Simulation time: 00 hr 04 min 45 sec)
Heartbeat CPU 0 instructions: 180000003 cycles: 45563040 heartbeat IPC: 3.946 cumulative IPC: 3.951 (Simulation time: 00 hr 05 min 03 sec)
Heartbeat CPU 0 instructions: 190000002 cycles: 48096192 heartbeat IPC: 3.948 cumulative IPC: 3.95 (Simulation time: 00 hr 05 min 20 sec)
Heartbeat CPU 0 instructions: 200000001 cycles: 50629199 heartbeat IPC: 3.948 cumulative IPC: 3.95 (Simulation time: 00 hr 05 min 38 sec)
Heartbeat CPU 0 instructions: 210000002 cycles: 53163017 heartbeat IPC: 3.947 cumulative IPC: 3.95 (Simulation time: 00 hr 05 min 55 sec)
Heartbeat CPU 0 instructions: 220000002 cycles: 55695854 heartbeat IPC: 3.948 cumulative IPC: 3.95 (Simulation time: 00 hr 06 min 12 sec)
Heartbeat CPU 0 instructions: 230000000 cycles: 58229522 heartbeat IPC: 3.947 cumulative IPC: 3.95 (Simulation time: 00 hr 06 min 30 sec)
Heartbeat CPU 0 instructions: 240000003 cycles: 60762750 heartbeat IPC: 3.948 cumulative IPC: 3.95 (Simulation time: 00 hr 06 min 47 sec)
Heartbeat CPU 0 instructions: 250000002 cycles: 63295912 heartbeat IPC: 3.948 cumulative IPC: 3.95 (Simulation time: 00 hr 07 min 04 sec)
Heartbeat CPU 0 instructions: 260000003 cycles: 65829425 heartbeat IPC: 3.947 cumulative IPC: 3.95 (Simulation time: 00 hr 07 min 22 sec)
Heartbeat CPU 0 instructions: 270000002 cycles: 68362507 heartbeat IPC: 3.948 cumulative IPC: 3.95 (Simulation time: 00 hr 07 min 46 sec)
Heartbeat CPU 0 instructions: 280000001 cycles: 70895886 heartbeat IPC: 3.947 cumulative IPC: 3.949 (Simulation time: 00 hr 08 min 20 sec)
Heartbeat CPU 0 instructions: 290000001 cycles: 73429401 heartbeat IPC: 3.947 cumulative IPC: 3.949 (Simulation time: 00 hr 08 min 54 sec)
Heartbeat CPU 0 instructions: 300000000 cycles: 75962543 heartbeat IPC: 3.948 cumulative IPC: 3.949 (Simulation time: 00 hr 09 min 28 sec)
Heartbeat CPU 0 instructions: 310000000 cycles: 78496000 heartbeat IPC: 3.947 cumulative IPC: 3.949 (Simulation time: 00 hr 10 min 02 sec)
Heartbeat CPU 0 instructions: 320000002 cycles: 81029198 heartbeat IPC: 3.948 cumulative IPC: 3.949 (Simulation time: 00 hr 10 min 36 sec)
Heartbeat CPU 0 instructions: 330000001 cycles: 83562932 heartbeat IPC: 3.947 cumulative IPC: 3.949 (Simulation time: 00 hr 11 min 10 sec)
Heartbeat CPU 0 instructions: 340000001 cycles: 86096766 heartbeat IPC: 3.947 cumulative IPC: 3.949 (Simulation time: 00 hr 11 min 44 sec)
Heartbeat CPU 0 instructions: 350000000 cycles: 88631597 heartbeat IPC: 3.945 cumulative IPC: 3.949 (Simulation time: 00 hr 12 min 18 sec)
Heartbeat CPU 0 instructions: 360000001 cycles: 91166935 heartbeat IPC: 3.944 cumulative IPC: 3.949 (Simulation time: 00 hr 12 min 51 sec)
Heartbeat CPU 0 instructions: 370000002 cycles: 93701720 heartbeat IPC: 3.945 cumulative IPC: 3.949 (Simulation time: 00 hr 13 min 25 sec)
Heartbeat CPU 0 instructions: 380000000 cycles: 96235968 heartbeat IPC: 3.946 cumulative IPC: 3.949 (Simulation time: 00 hr 13 min 58 sec)
Heartbeat CPU 0 instructions: 390000000 cycles: 98769022 heartbeat IPC: 3.948 cumulative IPC: 3.949 (Simulation time: 00 hr 14 min 32 sec)
Heartbeat CPU 0 instructions: 400000003 cycles: 101301736 heartbeat IPC: 3.948 cumulative IPC: 3.949 (Simulation time: 00 hr 15 min 05 sec)
Heartbeat CPU 0 instructions: 410000002 cycles: 103834094 heartbeat IPC: 3.949 cumulative IPC: 3.949 (Simulation time: 00 hr 15 min 39 sec)
Heartbeat CPU 0 instructions: 420000004 cycles: 106366661 heartbeat IPC: 3.949 cumulative IPC: 3.949 (Simulation time: 00 hr 16 min 12 sec)
Heartbeat CPU 0 instructions: 430000001 cycles: 108898639 heartbeat IPC: 3.949 cumulative IPC: 3.949 (Simulation time: 00 hr 16 min 46 sec)
Heartbeat CPU 0 instructions: 440000003 cycles: 111429013 heartbeat IPC: 3.952 cumulative IPC: 3.949 (Simulation time: 00 hr 17 min 19 sec)
Heartbeat CPU 0 instructions: 450000004 cycles: 113959470 heartbeat IPC: 3.952 cumulative IPC: 3.949 (Simulation time: 00 hr 17 min 53 sec)
Heartbeat CPU 0 instructions: 460000001 cycles: 116489953 heartbeat IPC: 3.952 cumulative IPC: 3.949 (Simulation time: 00 hr 18 min 26 sec)
Heartbeat CPU 0 instructions: 470000003 cycles: 119000305 heartbeat IPC: 3.984 cumulative IPC: 3.95 (Simulation time: 00 hr 19 min 03 sec)
Heartbeat CPU 0 instructions: 480000002 cycles: 121526242 heartbeat IPC: 3.959 cumulative IPC: 3.95 (Simulation time: 00 hr 19 min 37 sec)
Heartbeat CPU 0 instructions: 490000001 cycles: 124060410 heartbeat IPC: 3.946 cumulative IPC: 3.95 (Simulation time: 00 hr 20 min 11 sec)
Heartbeat CPU 0 instructions: 500000003 cycles: 126593614 heartbeat IPC: 3.948 cumulative IPC: 3.95 (Simulation time: 00 hr 20 min 44 sec)
Heartbeat CPU 0 instructions: 510000003 cycles: 129125458 heartbeat IPC: 3.95 cumulative IPC: 3.95 (Simulation time: 00 hr 21 min 18 sec)
Heartbeat CPU 0 instructions: 520000001 cycles: 131657568 heartbeat IPC: 3.949 cumulative IPC: 3.95 (Simulation time: 00 hr 21 min 52 sec)
Heartbeat CPU 0 instructions: 530000001 cycles: 134178953 heartbeat IPC: 3.966 cumulative IPC: 3.95 (Simulation time: 00 hr 22 min 26 sec)
Heartbeat CPU 0 instructions: 540000003 cycles: 136698886 heartbeat IPC: 3.968 cumulative IPC: 3.95 (Simulation time: 00 hr 23 min 01 sec)
Heartbeat CPU 0 instructions: 550000003 cycles: 139218913 heartbeat IPC: 3.968 cumulative IPC: 3.951 (Simulation time: 00 hr 23 min 35 sec)
Heartbeat CPU 0 instructions: 560000003 cycles: 141739210 heartbeat IPC: 3.968 cumulative IPC: 3.951 (Simulation time: 00 hr 24 min 10 sec)
Heartbeat CPU 0 instructions: 570000003 cycles: 144259217 heartbeat IPC: 3.968 cumulative IPC: 3.951 (Simulation time: 00 hr 24 min 44 sec)
Heartbeat CPU 0 instructions: 580000003 cycles: 146779258 heartbeat IPC: 3.968 cumulative IPC: 3.952 (Simulation time: 00 hr 25 min 19 sec)
Heartbeat CPU 0 instructions: 590000001 cycles: 149298647 heartbeat IPC: 3.969 cumulative IPC: 3.952 (Simulation time: 00 hr 25 min 54 sec)
Heartbeat CPU 0 instructions: 600000001 cycles: 151817645 heartbeat IPC: 3.97 cumulative IPC: 3.952 (Simulation time: 00 hr 26 min 28 sec)
Heartbeat CPU 0 instructions: 610000001 cycles: 154336657 heartbeat IPC: 3.97 cumulative IPC: 3.952 (Simulation time: 00 hr 27 min 03 sec)
Heartbeat CPU 0 instructions: 620000001 cycles: 156855659 heartbeat IPC: 3.97 cumulative IPC: 3.953 (Simulation time: 00 hr 27 min 38 sec)
Heartbeat CPU 0 instructions: 630000001 cycles: 159374651 heartbeat IPC: 3.97 cumulative IPC: 3.953 (Simulation time: 00 hr 28 min 12 sec)
Heartbeat CPU 0 instructions: 640000002 cycles: 161895501 heartbeat IPC: 3.967 cumulative IPC: 3.953 (Simulation time: 00 hr 28 min 47 sec)
Heartbeat CPU 0 instructions: 650000003 cycles: 164427203 heartbeat IPC: 3.95 cumulative IPC: 3.953 (Simulation time: 00 hr 29 min 21 sec)
Heartbeat CPU 0 instructions: 660000003 cycles: 166960318 heartbeat IPC: 3.948 cumulative IPC: 3.953 (Simulation time: 00 hr 29 min 54 sec)
Heartbeat CPU 0 instructions: 670000003 cycles: 169487962 heartbeat IPC: 3.956 cumulative IPC: 3.953 (Simulation time: 00 hr 30 min 28 sec)
Heartbeat CPU 0 instructions: 680000003 cycles: 172022126 heartbeat IPC: 3.946 cumulative IPC: 3.953 (Simulation time: 00 hr 31 min 02 sec)
Heartbeat CPU 0 instructions: 690000001 cycles: 174556742 heartbeat IPC: 3.945 cumulative IPC: 3.953 (Simulation time: 00 hr 31 min 36 sec)
Heartbeat CPU 0 instructions: 700000003 cycles: 177091364 heartbeat IPC: 3.945 cumulative IPC: 3.953 (Simulation time: 00 hr 32 min 09 sec)
Heartbeat CPU 0 instructions: 710000000 cycles: 179625874 heartbeat IPC: 3.946 cumulative IPC: 3.953 (Simulation time: 00 hr 32 min 43 sec)
Heartbeat CPU 0 instructions: 720000001 cycles: 182158560 heartbeat IPC: 3.948 cumulative IPC: 3.953 (Simulation time: 00 hr 33 min 16 sec)
Heartbeat CPU 0 instructions: 730000003 cycles: 184665766 heartbeat IPC: 3.989 cumulative IPC: 3.953 (Simulation time: 00 hr 33 min 53 sec)
Heartbeat CPU 0 instructions: 740000000 cycles: 187195924 heartbeat IPC: 3.952 cumulative IPC: 3.953 (Simulation time: 00 hr 34 min 27 sec)
Heartbeat CPU 0 instructions: 750000001 cycles: 189731087 heartbeat IPC: 3.945 cumulative IPC: 3.953 (Simulation time: 00 hr 35 min 00 sec)
Heartbeat CPU 0 instructions: 760000003 cycles: 192265954 heartbeat IPC: 3.945 cumulative IPC: 3.953 (Simulation time: 00 hr 35 min 34 sec)
Heartbeat CPU 0 instructions: 770000000 cycles: 194801148 heartbeat IPC: 3.944 cumulative IPC: 3.953 (Simulation time: 00 hr 36 min 08 sec)
Heartbeat CPU 0 instructions: 780000001 cycles: 197335215 heartbeat IPC: 3.946 cumulative IPC: 3.953 (Simulation time: 00 hr 36 min 41 sec)
Heartbeat CPU 0 instructions: 790000000 cycles: 199869092 heartbeat IPC: 3.947 cumulative IPC: 3.953 (Simulation time: 00 hr 37 min 15 sec)
Heartbeat CPU 0 instructions: 800000003 cycles: 202399521 heartbeat IPC: 3.952 cumulative IPC: 3.953 (Simulation time: 00 hr 37 min 49 sec)
Heartbeat CPU 0 instructions: 810000001 cycles: 204926132 heartbeat IPC: 3.958 cumulative IPC: 3.953 (Simulation time: 00 hr 38 min 23 sec)
Heartbeat CPU 0 instructions: 820000000 cycles: 207451607 heartbeat IPC: 3.96 cumulative IPC: 3.953 (Simulation time: 00 hr 38 min 57 sec)
Heartbeat CPU 0 instructions: 830000001 cycles: 209981790 heartbeat IPC: 3.952 cumulative IPC: 3.953 (Simulation time: 00 hr 39 min 31 sec)
Heartbeat CPU 0 instructions: 840000000 cycles: 212511947 heartbeat IPC: 3.952 cumulative IPC: 3.953 (Simulation time: 00 hr 40 min 04 sec)
Heartbeat CPU 0 instructions: 850000001 cycles: 215042141 heartbeat IPC: 3.952 cumulative IPC: 3.953 (Simulation time: 00 hr 40 min 38 sec)
Heartbeat CPU 0 instructions: 860000000 cycles: 217572342 heartbeat IPC: 3.952 cumulative IPC: 3.953 (Simulation time: 00 hr 41 min 12 sec)
Heartbeat CPU 0 instructions: 870000001 cycles: 220102548 heartbeat IPC: 3.952 cumulative IPC: 3.953 (Simulation time: 00 hr 41 min 46 sec)
Heartbeat CPU 0 instructions: 880000002 cycles: 222632755 heartbeat IPC: 3.952 cumulative IPC: 3.953 (Simulation time: 00 hr 42 min 20 sec)
Heartbeat CPU 0 instructions: 890000001 cycles: 225162913 heartbeat IPC: 3.952 cumulative IPC: 3.953 (Simulation time: 00 hr 42 min 54 sec)
Heartbeat CPU 0 instructions: 900000001 cycles: 227693051 heartbeat IPC: 3.952 cumulative IPC: 3.953 (Simulation time: 00 hr 43 min 27 sec)
Heartbeat CPU 0 instructions: 910000003 cycles: 230223201 heartbeat IPC: 3.952 cumulative IPC: 3.953 (Simulation time: 00 hr 44 min 01 sec)
Heartbeat CPU 0 instructions: 920000002 cycles: 232753359 heartbeat IPC: 3.952 cumulative IPC: 3.953 (Simulation time: 00 hr 44 min 35 sec)
Heartbeat CPU 0 instructions: 930000001 cycles: 235276229 heartbeat IPC: 3.964 cumulative IPC: 3.953 (Simulation time: 00 hr 45 min 10 sec)
Heartbeat CPU 0 instructions: 940000000 cycles: 237806662 heartbeat IPC: 3.952 cumulative IPC: 3.953 (Simulation time: 00 hr 45 min 43 sec)
Heartbeat CPU 0 instructions: 950000000 cycles: 240335908 heartbeat IPC: 3.954 cumulative IPC: 3.953 (Simulation time: 00 hr 46 min 17 sec)
Heartbeat CPU 0 instructions: 960000000 cycles: 242866561 heartbeat IPC: 3.952 cumulative IPC: 3.953 (Simulation time: 00 hr 46 min 51 sec)
Heartbeat CPU 0 instructions: 970000001 cycles: 245400911 heartbeat IPC: 3.946 cumulative IPC: 3.953 (Simulation time: 00 hr 47 min 25 sec)
Heartbeat CPU 0 instructions: 980000002 cycles: 247935723 heartbeat IPC: 3.945 cumulative IPC: 3.953 (Simulation time: 00 hr 47 min 59 sec)
Heartbeat CPU 0 instructions: 990000001 cycles: 250470838 heartbeat IPC: 3.945 cumulative IPC: 3.953 (Simulation time: 00 hr 48 min 33 sec)
Heartbeat CPU 0 instructions: 1000000002 cycles: 253005828 heartbeat IPC: 3.945 cumulative IPC: 3.952 (Simulation time: 00 hr 49 min 06 sec)
Warmup finished CPU 0 instructions: 1000000002 cycles: 253005829 cumulative IPC: 3.952 (Simulation time: 00 hr 49 min 06 sec)
Warmup complete CPU 0 instructions: 1000000002 cycles: 253005829 cumulative IPC: 3.952 (Simulation time: 00 hr 49 min 06 sec)
Heartbeat CPU 0 instructions: 1010000000 cycles: 256637150 heartbeat IPC: 2.754 cumulative IPC: 2.754 (Simulation time: 00 hr 49 min 56 sec)
Heartbeat CPU 0 instructions: 1020000001 cycles: 261374115 heartbeat IPC: 2.111 cumulative IPC: 2.39 (Simulation time: 00 hr 50 min 57 sec)
Heartbeat CPU 0 instructions: 1030000002 cycles: 264100120 heartbeat IPC: 3.668 cumulative IPC: 2.704 (Simulation time: 00 hr 51 min 36 sec)
Heartbeat CPU 0 instructions: 1040000003 cycles: 266824142 heartbeat IPC: 3.671 cumulative IPC: 2.895 (Simulation time: 00 hr 52 min 15 sec)
Heartbeat CPU 0 instructions: 1050000000 cycles: 269549704 heartbeat IPC: 3.669 cumulative IPC: 3.022 (Simulation time: 00 hr 52 min 54 sec)
Heartbeat CPU 0 instructions: 1060000003 cycles: 272383528 heartbeat IPC: 3.529 cumulative IPC: 3.096 (Simulation time: 00 hr 53 min 35 sec)
Heartbeat CPU 0 instructions: 1070000002 cycles: 275194414 heartbeat IPC: 3.558 cumulative IPC: 3.155 (Simulation time: 00 hr 54 min 15 sec)
Heartbeat CPU 0 instructions: 1080000001 cycles: 278015377 heartbeat IPC: 3.545 cumulative IPC: 3.199 (Simulation time: 00 hr 54 min 55 sec)
Heartbeat CPU 0 instructions: 1090000000 cycles: 280845391 heartbeat IPC: 3.534 cumulative IPC: 3.233 (Simulation time: 00 hr 55 min 36 sec)
Heartbeat CPU 0 instructions: 1100000001 cycles: 283658724 heartbeat IPC: 3.555 cumulative IPC: 3.262 (Simulation time: 00 hr 56 min 17 sec)
Heartbeat CPU 0 instructions: 1110000001 cycles: 286453591 heartbeat IPC: 3.578 cumulative IPC: 3.289 (Simulation time: 00 hr 56 min 56 sec)
Heartbeat CPU 0 instructions: 1120000003 cycles: 289252075 heartbeat IPC: 3.573 cumulative IPC: 3.311 (Simulation time: 00 hr 57 min 37 sec)
Heartbeat CPU 0 instructions: 1130000002 cycles: 292057448 heartbeat IPC: 3.565 cumulative IPC: 3.329 (Simulation time: 00 hr 58 min 20 sec)
Heartbeat CPU 0 instructions: 1140000003 cycles: 294841401 heartbeat IPC: 3.592 cumulative IPC: 3.346 (Simulation time: 00 hr 59 min 01 sec)
Heartbeat CPU 0 instructions: 1150000000 cycles: 297647432 heartbeat IPC: 3.564 cumulative IPC: 3.36 (Simulation time: 00 hr 59 min 41 sec)
Heartbeat CPU 0 instructions: 1160000000 cycles: 300442030 heartbeat IPC: 3.578 cumulative IPC: 3.373 (Simulation time: 01 hr 00 min 22 sec)
Heartbeat CPU 0 instructions: 1170000001 cycles: 303250215 heartbeat IPC: 3.561 cumulative IPC: 3.383 (Simulation time: 01 hr 01 min 02 sec)
Heartbeat CPU 0 instructions: 1180000000 cycles: 306048010 heartbeat IPC: 3.574 cumulative IPC: 3.394 (Simulation time: 01 hr 01 min 43 sec)
Heartbeat CPU 0 instructions: 1190000000 cycles: 308852984 heartbeat IPC: 3.565 cumulative IPC: 3.402 (Simulation time: 01 hr 02 min 24 sec)
Heartbeat CPU 0 instructions: 1200000004 cycles: 311649710 heartbeat IPC: 3.576 cumulative IPC: 3.41 (Simulation time: 01 hr 03 min 05 sec)
Heartbeat CPU 0 instructions: 1210000001 cycles: 314430704 heartbeat IPC: 3.596 cumulative IPC: 3.419 (Simulation time: 01 hr 03 min 46 sec)
Heartbeat CPU 0 instructions: 1220000000 cycles: 317235063 heartbeat IPC: 3.566 cumulative IPC: 3.425 (Simulation time: 01 hr 04 min 27 sec)
Heartbeat CPU 0 instructions: 1230000001 cycles: 320030331 heartbeat IPC: 3.577 cumulative IPC: 3.432 (Simulation time: 01 hr 05 min 07 sec)
Heartbeat CPU 0 instructions: 1240000004 cycles: 322833767 heartbeat IPC: 3.567 cumulative IPC: 3.437 (Simulation time: 01 hr 05 min 48 sec)
Heartbeat CPU 0 instructions: 1250000001 cycles: 325640632 heartbeat IPC: 3.563 cumulative IPC: 3.442 (Simulation time: 01 hr 06 min 31 sec)
Heartbeat CPU 0 instructions: 1260000001 cycles: 328431739 heartbeat IPC: 3.583 cumulative IPC: 3.447 (Simulation time: 01 hr 07 min 11 sec)
Heartbeat CPU 0 instructions: 1270000002 cycles: 331229278 heartbeat IPC: 3.575 cumulative IPC: 3.452 (Simulation time: 01 hr 07 min 53 sec)
Heartbeat CPU 0 instructions: 1280000000 cycles: 334035045 heartbeat IPC: 3.564 cumulative IPC: 3.456 (Simulation time: 01 hr 08 min 33 sec)
Heartbeat CPU 0 instructions: 1290000002 cycles: 336869570 heartbeat IPC: 3.528 cumulative IPC: 3.458 (Simulation time: 01 hr 09 min 13 sec)
Heartbeat CPU 0 instructions: 1300000004 cycles: 339689601 heartbeat IPC: 3.546 cumulative IPC: 3.461 (Simulation time: 01 hr 09 min 53 sec)
Heartbeat CPU 0 instructions: 1310000004 cycles: 342477890 heartbeat IPC: 3.586 cumulative IPC: 3.465 (Simulation time: 01 hr 10 min 33 sec)
Heartbeat CPU 0 instructions: 1320000000 cycles: 345315181 heartbeat IPC: 3.524 cumulative IPC: 3.467 (Simulation time: 01 hr 11 min 13 sec)
Heartbeat CPU 0 instructions: 1330000000 cycles: 348043148 heartbeat IPC: 3.666 cumulative IPC: 3.472 (Simulation time: 01 hr 11 min 52 sec)
Heartbeat CPU 0 instructions: 1340000004 cycles: 350767309 heartbeat IPC: 3.671 cumulative IPC: 3.478 (Simulation time: 01 hr 12 min 31 sec)
Heartbeat CPU 0 instructions: 1350000000 cycles: 353493640 heartbeat IPC: 3.668 cumulative IPC: 3.483 (Simulation time: 01 hr 13 min 10 sec)
Heartbeat CPU 0 instructions: 1360000004 cycles: 357490284 heartbeat IPC: 2.502 cumulative IPC: 3.445 (Simulation time: 01 hr 14 min 03 sec)
Heartbeat CPU 0 instructions: 1370000004 cycles: 361756267 heartbeat IPC: 2.344 cumulative IPC: 3.402 (Simulation time: 01 hr 14 min 59 sec)
Heartbeat CPU 0 instructions: 1380000000 cycles: 364501189 heartbeat IPC: 3.643 cumulative IPC: 3.408 (Simulation time: 01 hr 15 min 39 sec)
Heartbeat CPU 0 instructions: 1390000002 cycles: 367246051 heartbeat IPC: 3.643 cumulative IPC: 3.414 (Simulation time: 01 hr 16 min 18 sec)
Heartbeat CPU 0 instructions: 1400000004 cycles: 369992269 heartbeat IPC: 3.641 cumulative IPC: 3.419 (Simulation time: 01 hr 16 min 57 sec)
Heartbeat CPU 0 instructions: 1410000004 cycles: 372759343 heartbeat IPC: 3.614 cumulative IPC: 3.424 (Simulation time: 01 hr 17 min 37 sec)
Heartbeat CPU 0 instructions: 1420000002 cycles: 375496805 heartbeat IPC: 3.653 cumulative IPC: 3.429 (Simulation time: 01 hr 18 min 16 sec)
Heartbeat CPU 0 instructions: 1430000000 cycles: 378234671 heartbeat IPC: 3.652 cumulative IPC: 3.434 (Simulation time: 01 hr 18 min 56 sec)
Heartbeat CPU 0 instructions: 1440000000 cycles: 380970811 heartbeat IPC: 3.655 cumulative IPC: 3.438 (Simulation time: 01 hr 19 min 35 sec)
Heartbeat CPU 0 instructions: 1450000002 cycles: 383772727 heartbeat IPC: 3.569 cumulative IPC: 3.441 (Simulation time: 01 hr 20 min 15 sec)
Heartbeat CPU 0 instructions: 1460000003 cycles: 386539306 heartbeat IPC: 3.615 cumulative IPC: 3.445 (Simulation time: 01 hr 20 min 55 sec)
Heartbeat CPU 0 instructions: 1470000000 cycles: 389355537 heartbeat IPC: 3.551 cumulative IPC: 3.447 (Simulation time: 01 hr 21 min 35 sec)
Heartbeat CPU 0 instructions: 1480000000 cycles: 392229247 heartbeat IPC: 3.48 cumulative IPC: 3.448 (Simulation time: 01 hr 22 min 16 sec)
Heartbeat CPU 0 instructions: 1490000000 cycles: 395009742 heartbeat IPC: 3.596 cumulative IPC: 3.451 (Simulation time: 01 hr 22 min 55 sec)
Heartbeat CPU 0 instructions: 1500000002 cycles: 397802701 heartbeat IPC: 3.58 cumulative IPC: 3.453 (Simulation time: 01 hr 23 min 35 sec)
Simulation finished CPU 0 instructions: 500000000 cycles: 144796873 cumulative IPC: 3.453 (Simulation time: 01 hr 23 min 35 sec)
Simulation complete CPU 0 instructions: 500000000 cycles: 144796873 cumulative IPC: 3.453 (Simulation time: 01 hr 23 min 35 sec)

ChampSim completed all CPUs

=== Simulation ===
CPU 0 runs traces/603.bwaves_s-1080B.champsimtrace.xz
Region of Interest Statistics

CPU 0 cumulative IPC: 3.453 instructions: 500000000 cycles: 144796873
CPU 0 Branch Prediction Accuracy: 99.05% MPKI: 1.375 Average ROB Occupancy at Mispredict: 125.1
Branch type MPKI
BRANCH_DIRECT_JUMP: 0.186
BRANCH_INDIRECT: 0
BRANCH_CONDITIONAL: 1.06
BRANCH_DIRECT_CALL: 0
BRANCH_INDIRECT_CALL: 0
BRANCH_RETURN: 0.131

LLC TOTAL        ACCESS:     328047 HIT:     155999 MISS:     172048
LLC LOAD         ACCESS:      15778 HIT:         14 MISS:      15764
LLC RFO          ACCESS:     156254 HIT:         13 MISS:     156241
LLC PREFETCH     ACCESS:          0 HIT:          0 MISS:          0
LLC WRITE        ACCESS:     155994 HIT:     155969 MISS:         25
LLC TRANSLATION  ACCESS:         21 HIT:          3 MISS:         18
LLC PREFETCH REQUESTED:          0 ISSUED:          0 USEFUL:          0 USELESS:          0
LLC AVERAGE MISS LATENCY: 409 cycles
cpu0_DTLB TOTAL        ACCESS:   82024288 HIT:   82000260 MISS:      24028
cpu0_DTLB LOAD         ACCESS:   82024288 HIT:   82000260 MISS:      24028
cpu0_DTLB RFO          ACCESS:          0 HIT:          0 MISS:          0
cpu0_DTLB PREFETCH     ACCESS:          0 HIT:          0 MISS:          0
cpu0_DTLB WRITE        ACCESS:          0 HIT:          0 MISS:          0
cpu0_DTLB TRANSLATION  ACCESS:          0 HIT:          0 MISS:          0
cpu0_DTLB PREFETCH REQUESTED:          0 ISSUED:          0 USEFUL:          0 USELESS:          0
cpu0_DTLB AVERAGE MISS LATENCY: 19.53 cycles
cpu0_ITLB TOTAL        ACCESS:    1899175 HIT:    1899175 MISS:          0
cpu0_ITLB LOAD         ACCESS:    1899175 HIT:    1899175 MISS:          0
cpu0_ITLB RFO          ACCESS:          0 HIT:          0 MISS:          0
cpu0_ITLB PREFETCH     ACCESS:          0 HIT:          0 MISS:          0
cpu0_ITLB WRITE        ACCESS:          0 HIT:          0 MISS:          0
cpu0_ITLB TRANSLATION  ACCESS:          0 HIT:          0 MISS:          0
cpu0_ITLB PREFETCH REQUESTED:          0 ISSUED:          0 USEFUL:          0 USELESS:          0
cpu0_ITLB AVERAGE MISS LATENCY: -nan cycles
cpu0_L1D TOTAL        ACCESS:  126210268 HIT:  125017864 MISS:    1192404
cpu0_L1D LOAD         ACCESS:  105095313 HIT:  105051802 MISS:      43511
cpu0_L1D RFO          ACCESS:          0 HIT:          0 MISS:          0
cpu0_L1D PREFETCH     ACCESS:          0 HIT:          0 MISS:          0
cpu0_L1D WRITE        ACCESS:   21112259 HIT:   19963631 MISS:    1148628
cpu0_L1D TRANSLATION  ACCESS:       2696 HIT:       2431 MISS:        265
cpu0_L1D PREFETCH REQUESTED:          0 ISSUED:          0 USEFUL:          0 USELESS:          0
cpu0_L1D AVERAGE MISS LATENCY: 59.25 cycles
cpu0_L1I TOTAL        ACCESS:    2201139 HIT:    2201139 MISS:          0
cpu0_L1I LOAD         ACCESS:    2201139 HIT:    2201139 MISS:          0
cpu0_L1I RFO          ACCESS:          0 HIT:          0 MISS:          0
cpu0_L1I PREFETCH     ACCESS:          0 HIT:          0 MISS:          0
cpu0_L1I WRITE        ACCESS:          0 HIT:          0 MISS:          0
cpu0_L1I TRANSLATION  ACCESS:          0 HIT:          0 MISS:          0
cpu0_L1I PREFETCH REQUESTED:          0 ISSUED:          0 USEFUL:          0 USELESS:          0
cpu0_L1I AVERAGE MISS LATENCY: -nan cycles
cpu0_L2C TOTAL        ACCESS:     331485 HIT:     159412 MISS:     172073
cpu0_L2C LOAD         ACCESS:      17004 HIT:       1226 MISS:      15778
cpu0_L2C RFO          ACCESS:     157380 HIT:       1126 MISS:     156254
cpu0_L2C PREFETCH     ACCESS:          0 HIT:          0 MISS:          0
cpu0_L2C WRITE        ACCESS:     156836 HIT:     156816 MISS:         20
cpu0_L2C TRANSLATION  ACCESS:        265 HIT:        244 MISS:         21
cpu0_L2C PREFETCH REQUESTED:          0 ISSUED:          0 USEFUL:          0 USELESS:          0
cpu0_L2C AVERAGE MISS LATENCY: 429.9 cycles
cpu0_STLB TOTAL        ACCESS:       2816 HIT:        125 MISS:       2691
cpu0_STLB LOAD         ACCESS:       2816 HIT:        125 MISS:       2691
cpu0_STLB RFO          ACCESS:          0 HIT:          0 MISS:          0
cpu0_STLB PREFETCH     ACCESS:          0 HIT:          0 MISS:          0
cpu0_STLB WRITE        ACCESS:          0 HIT:          0 MISS:          0
cpu0_STLB TRANSLATION  ACCESS:          0 HIT:          0 MISS:          0
cpu0_STLB PREFETCH REQUESTED:          0 ISSUED:          0 USEFUL:          0 USELESS:          0
cpu0_STLB AVERAGE MISS LATENCY: 209.9 cycles

DRAM Statistics

Channel 0 RQ ROW_BUFFER_HIT:      59662
  ROW_BUFFER_MISS:     112361
 AVG DBUS CONGESTED CYCLE: 3.933
WQ ROW_BUFFER_HIT: Channel 0 
  ROW_BUFFER_MISS:      53486
  FULL:     102549
