WARNING: physical memory size is smaller than virtual memory size.

*** ChampSim Multicore Out-of-Order Simulator ***
Warmup Instructions: 0
Simulation Instructions: 10000000000
Number of CPUs: 1
Page size: 4096

Off-chip DRAM Size: 4 GiB Channels: 1 Width: 64-bit Data Race: 3200 MT/s
Warmup finished CPU 0 instructions: 0 cycles: 1 cumulative IPC: 0 (Simulation time: 00 hr 00 min 00 sec)
Warmup complete CPU 0 instructions: 0 cycles: 1 cumulative IPC: 0 (Simulation time: 00 hr 00 min 00 sec)
Heartbeat CPU 0 instructions: 10000000 cycles: 2858691 heartbeat IPC: 3.498 cumulative IPC: 3.498 (Simulation time: 00 hr 00 min 17 sec)
Heartbeat CPU 0 instructions: 20000002 cycles: 7292579 heartbeat IPC: 2.255 cumulative IPC: 2.743 (Simulation time: 00 hr 00 min 40 sec)
Heartbeat CPU 0 instructions: 30000001 cycles: 9994594 heartbeat IPC: 3.701 cumulative IPC: 3.002 (Simulation time: 00 hr 00 min 57 sec)
Heartbeat CPU 0 instructions: 40000000 cycles: 12697637 heartbeat IPC: 3.7 cumulative IPC: 3.15 (Simulation time: 00 hr 01 min 13 sec)
Heartbeat CPU 0 instructions: 50000004 cycles: 15462002 heartbeat IPC: 3.617 cumulative IPC: 3.234 (Simulation time: 00 hr 01 min 29 sec)
Heartbeat CPU 0 instructions: 60000001 cycles: 18189600 heartbeat IPC: 3.666 cumulative IPC: 3.299 (Simulation time: 00 hr 01 min 45 sec)
Heartbeat CPU 0 instructions: 70000003 cycles: 20915962 heartbeat IPC: 3.668 cumulative IPC: 3.347 (Simulation time: 00 hr 02 min 02 sec)
Heartbeat CPU 0 instructions: 80000000 cycles: 23643437 heartbeat IPC: 3.666 cumulative IPC: 3.384 (Simulation time: 00 hr 02 min 18 sec)
Heartbeat CPU 0 instructions: 90000001 cycles: 26392645 heartbeat IPC: 3.637 cumulative IPC: 3.41 (Simulation time: 00 hr 02 min 35 sec)
Heartbeat CPU 0 instructions: 100000001 cycles: 29150981 heartbeat IPC: 3.625 cumulative IPC: 3.43 (Simulation time: 00 hr 02 min 52 sec)
Heartbeat CPU 0 instructions: 110000001 cycles: 31894829 heartbeat IPC: 3.645 cumulative IPC: 3.449 (Simulation time: 00 hr 03 min 09 sec)
Heartbeat CPU 0 instructions: 120000001 cycles: 34611661 heartbeat IPC: 3.681 cumulative IPC: 3.467 (Simulation time: 00 hr 03 min 26 sec)
Heartbeat CPU 0 instructions: 130000000 cycles: 37327689 heartbeat IPC: 3.682 cumulative IPC: 3.483 (Simulation time: 00 hr 03 min 43 sec)
Heartbeat CPU 0 instructions: 140000000 cycles: 40043382 heartbeat IPC: 3.682 cumulative IPC: 3.496 (Simulation time: 00 hr 03 min 59 sec)
Heartbeat CPU 0 instructions: 150000001 cycles: 42791231 heartbeat IPC: 3.639 cumulative IPC: 3.505 (Simulation time: 00 hr 04 min 16 sec)
Heartbeat CPU 0 instructions: 160000001 cycles: 45541008 heartbeat IPC: 3.637 cumulative IPC: 3.513 (Simulation time: 00 hr 04 min 33 sec)
Heartbeat CPU 0 instructions: 170000004 cycles: 48317482 heartbeat IPC: 3.602 cumulative IPC: 3.518 (Simulation time: 00 hr 04 min 51 sec)
Heartbeat CPU 0 instructions: 180000002 cycles: 51069503 heartbeat IPC: 3.634 cumulative IPC: 3.525 (Simulation time: 00 hr 05 min 08 sec)
Heartbeat CPU 0 instructions: 190000001 cycles: 53842835 heartbeat IPC: 3.606 cumulative IPC: 3.529 (Simulation time: 00 hr 05 min 25 sec)
Heartbeat CPU 0 instructions: 200000001 cycles: 56617389 heartbeat IPC: 3.604 cumulative IPC: 3.532 (Simulation time: 00 hr 05 min 42 sec)
Heartbeat CPU 0 instructions: 210000002 cycles: 59370495 heartbeat IPC: 3.632 cumulative IPC: 3.537 (Simulation time: 00 hr 05 min 58 sec)
Heartbeat CPU 0 instructions: 220000001 cycles: 62142774 heartbeat IPC: 3.607 cumulative IPC: 3.54 (Simulation time: 00 hr 06 min 16 sec)
Heartbeat CPU 0 instructions: 230000001 cycles: 64896342 heartbeat IPC: 3.632 cumulative IPC: 3.544 (Simulation time: 00 hr 06 min 33 sec)
Heartbeat CPU 0 instructions: 240000002 cycles: 67670995 heartbeat IPC: 3.604 cumulative IPC: 3.547 (Simulation time: 00 hr 06 min 50 sec)
Heartbeat CPU 0 instructions: 250000004 cycles: 70444468 heartbeat IPC: 3.606 cumulative IPC: 3.549 (Simulation time: 00 hr 07 min 07 sec)
Heartbeat CPU 0 instructions: 260000002 cycles: 73196968 heartbeat IPC: 3.633 cumulative IPC: 3.552 (Simulation time: 00 hr 07 min 23 sec)
Heartbeat CPU 0 instructions: 270000000 cycles: 75972015 heartbeat IPC: 3.604 cumulative IPC: 3.554 (Simulation time: 00 hr 07 min 40 sec)
Heartbeat CPU 0 instructions: 280000000 cycles: 78748235 heartbeat IPC: 3.602 cumulative IPC: 3.556 (Simulation time: 00 hr 07 min 58 sec)
Heartbeat CPU 0 instructions: 290000001 cycles: 81499467 heartbeat IPC: 3.635 cumulative IPC: 3.558 (Simulation time: 00 hr 08 min 15 sec)
Heartbeat CPU 0 instructions: 300000001 cycles: 84274664 heartbeat IPC: 3.603 cumulative IPC: 3.56 (Simulation time: 00 hr 08 min 32 sec)
Heartbeat CPU 0 instructions: 310000001 cycles: 87028228 heartbeat IPC: 3.632 cumulative IPC: 3.562 (Simulation time: 00 hr 08 min 49 sec)
Heartbeat CPU 0 instructions: 320000003 cycles: 89804839 heartbeat IPC: 3.602 cumulative IPC: 3.563 (Simulation time: 00 hr 09 min 06 sec)
Heartbeat CPU 0 instructions: 330000001 cycles: 92552095 heartbeat IPC: 3.64 cumulative IPC: 3.566 (Simulation time: 00 hr 09 min 23 sec)
Heartbeat CPU 0 instructions: 340000001 cycles: 95291140 heartbeat IPC: 3.651 cumulative IPC: 3.568 (Simulation time: 00 hr 09 min 40 sec)
Heartbeat CPU 0 instructions: 350000003 cycles: 98006515 heartbeat IPC: 3.683 cumulative IPC: 3.571 (Simulation time: 00 hr 09 min 57 sec)
Heartbeat CPU 0 instructions: 360000002 cycles: 100720349 heartbeat IPC: 3.685 cumulative IPC: 3.574 (Simulation time: 00 hr 10 min 13 sec)
Heartbeat CPU 0 instructions: 370000002 cycles: 103436294 heartbeat IPC: 3.682 cumulative IPC: 3.577 (Simulation time: 00 hr 10 min 30 sec)
Heartbeat CPU 0 instructions: 380000002 cycles: 106180297 heartbeat IPC: 3.644 cumulative IPC: 3.579 (Simulation time: 00 hr 10 min 47 sec)
Heartbeat CPU 0 instructions: 390000000 cycles: 108957864 heartbeat IPC: 3.6 cumulative IPC: 3.579 (Simulation time: 00 hr 11 min 04 sec)
Heartbeat CPU 0 instructions: 400000001 cycles: 111682612 heartbeat IPC: 3.67 cumulative IPC: 3.582 (Simulation time: 00 hr 11 min 21 sec)
Heartbeat CPU 0 instructions: 410000000 cycles: 114408834 heartbeat IPC: 3.668 cumulative IPC: 3.584 (Simulation time: 00 hr 11 min 38 sec)
Heartbeat CPU 0 instructions: 420000001 cycles: 117133915 heartbeat IPC: 3.67 cumulative IPC: 3.586 (Simulation time: 00 hr 11 min 54 sec)
Heartbeat CPU 0 instructions: 430000000 cycles: 119915840 heartbeat IPC: 3.595 cumulative IPC: 3.586 (Simulation time: 00 hr 12 min 11 sec)
Heartbeat CPU 0 instructions: 440000002 cycles: 122618432 heartbeat IPC: 3.7 cumulative IPC: 3.588 (Simulation time: 00 hr 12 min 28 sec)
Heartbeat CPU 0 instructions: 450000002 cycles: 125319000 heartbeat IPC: 3.703 cumulative IPC: 3.591 (Simulation time: 00 hr 12 min 45 sec)
Heartbeat CPU 0 instructions: 460000004 cycles: 128019610 heartbeat IPC: 3.703 cumulative IPC: 3.593 (Simulation time: 00 hr 13 min 02 sec)
Heartbeat CPU 0 instructions: 470000001 cycles: 133078322 heartbeat IPC: 1.977 cumulative IPC: 3.532 (Simulation time: 00 hr 13 min 29 sec)
Heartbeat CPU 0 instructions: 480000001 cycles: 136477383 heartbeat IPC: 2.942 cumulative IPC: 3.517 (Simulation time: 00 hr 13 min 49 sec)
Heartbeat CPU 0 instructions: 490000001 cycles: 139234840 heartbeat IPC: 3.627 cumulative IPC: 3.519 (Simulation time: 00 hr 14 min 05 sec)
Heartbeat CPU 0 instructions: 500000002 cycles: 142004557 heartbeat IPC: 3.61 cumulative IPC: 3.521 (Simulation time: 00 hr 14 min 23 sec)
Heartbeat CPU 0 instructions: 510000004 cycles: 144756922 heartbeat IPC: 3.633 cumulative IPC: 3.523 (Simulation time: 00 hr 14 min 40 sec)
Heartbeat CPU 0 instructions: 520000000 cycles: 147515525 heartbeat IPC: 3.625 cumulative IPC: 3.525 (Simulation time: 00 hr 14 min 57 sec)
Heartbeat CPU 0 instructions: 530000000 cycles: 150299727 heartbeat IPC: 3.592 cumulative IPC: 3.526 (Simulation time: 00 hr 15 min 14 sec)
Heartbeat CPU 0 instructions: 540000001 cycles: 153094146 heartbeat IPC: 3.579 cumulative IPC: 3.527 (Simulation time: 00 hr 15 min 32 sec)
Heartbeat CPU 0 instructions: 550000000 cycles: 155870256 heartbeat IPC: 3.602 cumulative IPC: 3.529 (Simulation time: 00 hr 15 min 50 sec)
Heartbeat CPU 0 instructions: 560000003 cycles: 158645361 heartbeat IPC: 3.603 cumulative IPC: 3.53 (Simulation time: 00 hr 16 min 08 sec)
Heartbeat CPU 0 instructions: 570000002 cycles: 161419634 heartbeat IPC: 3.605 cumulative IPC: 3.531 (Simulation time: 00 hr 16 min 25 sec)
Heartbeat CPU 0 instructions: 580000003 cycles: 164199407 heartbeat IPC: 3.597 cumulative IPC: 3.532 (Simulation time: 00 hr 16 min 43 sec)
Heartbeat CPU 0 instructions: 590000003 cycles: 166986570 heartbeat IPC: 3.588 cumulative IPC: 3.533 (Simulation time: 00 hr 17 min 01 sec)
Heartbeat CPU 0 instructions: 600000000 cycles: 169774409 heartbeat IPC: 3.587 cumulative IPC: 3.534 (Simulation time: 00 hr 17 min 18 sec)
Heartbeat CPU 0 instructions: 610000002 cycles: 172553807 heartbeat IPC: 3.598 cumulative IPC: 3.535 (Simulation time: 00 hr 17 min 36 sec)
Heartbeat CPU 0 instructions: 620000000 cycles: 175338165 heartbeat IPC: 3.591 cumulative IPC: 3.536 (Simulation time: 00 hr 17 min 54 sec)
Heartbeat CPU 0 instructions: 630000000 cycles: 178121661 heartbeat IPC: 3.593 cumulative IPC: 3.537 (Simulation time: 00 hr 18 min 11 sec)
Heartbeat CPU 0 instructions: 640000004 cycles: 180901707 heartbeat IPC: 3.597 cumulative IPC: 3.538 (Simulation time: 00 hr 18 min 29 sec)
Heartbeat CPU 0 instructions: 650000001 cycles: 183676047 heartbeat IPC: 3.604 cumulative IPC: 3.539 (Simulation time: 00 hr 18 min 46 sec)
Heartbeat CPU 0 instructions: 660000001 cycles: 186426066 heartbeat IPC: 3.636 cumulative IPC: 3.54 (Simulation time: 00 hr 19 min 03 sec)
Heartbeat CPU 0 instructions: 670000002 cycles: 189183409 heartbeat IPC: 3.627 cumulative IPC: 3.542 (Simulation time: 00 hr 19 min 20 sec)
Heartbeat CPU 0 instructions: 680000000 cycles: 191953411 heartbeat IPC: 3.61 cumulative IPC: 3.543 (Simulation time: 00 hr 19 min 37 sec)
Heartbeat CPU 0 instructions: 690000000 cycles: 194674399 heartbeat IPC: 3.675 cumulative IPC: 3.544 (Simulation time: 00 hr 19 min 54 sec)
Heartbeat CPU 0 instructions: 700000003 cycles: 197395731 heartbeat IPC: 3.675 cumulative IPC: 3.546 (Simulation time: 00 hr 20 min 11 sec)
Heartbeat CPU 0 instructions: 710000004 cycles: 200117414 heartbeat IPC: 3.674 cumulative IPC: 3.548 (Simulation time: 00 hr 20 min 27 sec)
Heartbeat CPU 0 instructions: 720000002 cycles: 202922806 heartbeat IPC: 3.565 cumulative IPC: 3.548 (Simulation time: 00 hr 20 min 45 sec)
Heartbeat CPU 0 instructions: 730000002 cycles: 208330514 heartbeat IPC: 1.849 cumulative IPC: 3.504 (Simulation time: 00 hr 21 min 14 sec)
Heartbeat CPU 0 instructions: 740000002 cycles: 211328198 heartbeat IPC: 3.336 cumulative IPC: 3.502 (Simulation time: 00 hr 21 min 32 sec)
Heartbeat CPU 0 instructions: 750000001 cycles: 214042132 heartbeat IPC: 3.685 cumulative IPC: 3.504 (Simulation time: 00 hr 21 min 49 sec)
Heartbeat CPU 0 instructions: 760000002 cycles: 216757313 heartbeat IPC: 3.683 cumulative IPC: 3.506 (Simulation time: 00 hr 22 min 06 sec)
Heartbeat CPU 0 instructions: 770000002 cycles: 219472022 heartbeat IPC: 3.684 cumulative IPC: 3.508 (Simulation time: 00 hr 22 min 23 sec)
Heartbeat CPU 0 instructions: 780000001 cycles: 222216012 heartbeat IPC: 3.644 cumulative IPC: 3.51 (Simulation time: 00 hr 22 min 40 sec)
Heartbeat CPU 0 instructions: 790000002 cycles: 224966486 heartbeat IPC: 3.636 cumulative IPC: 3.512 (Simulation time: 00 hr 22 min 57 sec)
Heartbeat CPU 0 instructions: 800000001 cycles: 227773422 heartbeat IPC: 3.563 cumulative IPC: 3.512 (Simulation time: 00 hr 23 min 14 sec)
Heartbeat CPU 0 instructions: 810000000 cycles: 230557424 heartbeat IPC: 3.592 cumulative IPC: 3.513 (Simulation time: 00 hr 23 min 31 sec)
Heartbeat CPU 0 instructions: 820000002 cycles: 233334691 heartbeat IPC: 3.601 cumulative IPC: 3.514 (Simulation time: 00 hr 23 min 49 sec)
Heartbeat CPU 0 instructions: 830000004 cycles: 236107149 heartbeat IPC: 3.607 cumulative IPC: 3.515 (Simulation time: 00 hr 24 min 06 sec)
Heartbeat CPU 0 instructions: 840000001 cycles: 238880806 heartbeat IPC: 3.605 cumulative IPC: 3.516 (Simulation time: 00 hr 24 min 23 sec)
Heartbeat CPU 0 instructions: 850000000 cycles: 241655951 heartbeat IPC: 3.603 cumulative IPC: 3.517 (Simulation time: 00 hr 24 min 40 sec)
Heartbeat CPU 0 instructions: 860000003 cycles: 244430407 heartbeat IPC: 3.604 cumulative IPC: 3.518 (Simulation time: 00 hr 24 min 58 sec)
Heartbeat CPU 0 instructions: 870000001 cycles: 247210134 heartbeat IPC: 3.597 cumulative IPC: 3.519 (Simulation time: 00 hr 25 min 15 sec)
Heartbeat CPU 0 instructions: 880000000 cycles: 249985295 heartbeat IPC: 3.603 cumulative IPC: 3.52 (Simulation time: 00 hr 25 min 32 sec)
Heartbeat CPU 0 instructions: 890000002 cycles: 252766476 heartbeat IPC: 3.596 cumulative IPC: 3.521 (Simulation time: 00 hr 25 min 49 sec)
Heartbeat CPU 0 instructions: 900000000 cycles: 255538090 heartbeat IPC: 3.608 cumulative IPC: 3.522 (Simulation time: 00 hr 26 min 06 sec)
Heartbeat CPU 0 instructions: 910000000 cycles: 258310236 heartbeat IPC: 3.607 cumulative IPC: 3.523 (Simulation time: 00 hr 26 min 24 sec)
Heartbeat CPU 0 instructions: 920000000 cycles: 261082970 heartbeat IPC: 3.607 cumulative IPC: 3.524 (Simulation time: 00 hr 26 min 41 sec)
Heartbeat CPU 0 instructions: 930000002 cycles: 263852515 heartbeat IPC: 3.611 cumulative IPC: 3.525 (Simulation time: 00 hr 26 min 58 sec)
Heartbeat CPU 0 instructions: 940000002 cycles: 266650733 heartbeat IPC: 3.574 cumulative IPC: 3.525 (Simulation time: 00 hr 27 min 16 sec)
Heartbeat CPU 0 instructions: 950000002 cycles: 269433014 heartbeat IPC: 3.594 cumulative IPC: 3.526 (Simulation time: 00 hr 27 min 33 sec)
Heartbeat CPU 0 instructions: 960000000 cycles: 272181093 heartbeat IPC: 3.639 cumulative IPC: 3.527 (Simulation time: 00 hr 27 min 50 sec)
Heartbeat CPU 0 instructions: 970000001 cycles: 274920468 heartbeat IPC: 3.65 cumulative IPC: 3.528 (Simulation time: 00 hr 28 min 07 sec)
Heartbeat CPU 0 instructions: 980000003 cycles: 277635276 heartbeat IPC: 3.684 cumulative IPC: 3.53 (Simulation time: 00 hr 28 min 23 sec)
Heartbeat CPU 0 instructions: 990000002 cycles: 280349890 heartbeat IPC: 3.684 cumulative IPC: 3.531 (Simulation time: 00 hr 28 min 40 sec)
Heartbeat CPU 0 instructions: 1000000000 cycles: 283064067 heartbeat IPC: 3.684 cumulative IPC: 3.533 (Simulation time: 00 hr 28 min 57 sec)
Heartbeat CPU 0 instructions: 1010000000 cycles: 286668984 heartbeat IPC: 2.774 cumulative IPC: 3.523 (Simulation time: 00 hr 29 min 18 sec)
Heartbeat CPU 0 instructions: 1020000001 cycles: 291388489 heartbeat IPC: 2.119 cumulative IPC: 3.5 (Simulation time: 00 hr 29 min 44 sec)
Heartbeat CPU 0 instructions: 1030000002 cycles: 294090565 heartbeat IPC: 3.701 cumulative IPC: 3.502 (Simulation time: 00 hr 30 min 01 sec)
Heartbeat CPU 0 instructions: 1040000003 cycles: 296792210 heartbeat IPC: 3.701 cumulative IPC: 3.504 (Simulation time: 00 hr 30 min 18 sec)
Heartbeat CPU 0 instructions: 1050000000 cycles: 299492388 heartbeat IPC: 3.703 cumulative IPC: 3.506 (Simulation time: 00 hr 30 min 35 sec)
Heartbeat CPU 0 instructions: 1060000003 cycles: 302300382 heartbeat IPC: 3.561 cumulative IPC: 3.506 (Simulation time: 00 hr 30 min 52 sec)
Heartbeat CPU 0 instructions: 1070000002 cycles: 305083830 heartbeat IPC: 3.593 cumulative IPC: 3.507 (Simulation time: 00 hr 31 min 09 sec)
Heartbeat CPU 0 instructions: 1080000001 cycles: 307859500 heartbeat IPC: 3.603 cumulative IPC: 3.508 (Simulation time: 00 hr 31 min 26 sec)
Heartbeat CPU 0 instructions: 1090000000 cycles: 310645811 heartbeat IPC: 3.589 cumulative IPC: 3.509 (Simulation time: 00 hr 31 min 44 sec)
Heartbeat CPU 0 instructions: 1100000001 cycles: 313420589 heartbeat IPC: 3.604 cumulative IPC: 3.51 (Simulation time: 00 hr 32 min 01 sec)
Heartbeat CPU 0 instructions: 1110000001 cycles: 316185368 heartbeat IPC: 3.617 cumulative IPC: 3.511 (Simulation time: 00 hr 32 min 19 sec)
Heartbeat CPU 0 instructions: 1120000003 cycles: 318956344 heartbeat IPC: 3.609 cumulative IPC: 3.511 (Simulation time: 00 hr 32 min 36 sec)
Heartbeat CPU 0 instructions: 1130000002 cycles: 321724206 heartbeat IPC: 3.613 cumulative IPC: 3.512 (Simulation time: 00 hr 32 min 53 sec)
Heartbeat CPU 0 instructions: 1140000003 cycles: 324478257 heartbeat IPC: 3.631 cumulative IPC: 3.513 (Simulation time: 00 hr 33 min 10 sec)
Heartbeat CPU 0 instructions: 1150000000 cycles: 327254372 heartbeat IPC: 3.602 cumulative IPC: 3.514 (Simulation time: 00 hr 33 min 27 sec)
Heartbeat CPU 0 instructions: 1160000000 cycles: 330018294 heartbeat IPC: 3.618 cumulative IPC: 3.515 (Simulation time: 00 hr 33 min 44 sec)
Heartbeat CPU 0 instructions: 1170000001 cycles: 332795512 heartbeat IPC: 3.601 cumulative IPC: 3.516 (Simulation time: 00 hr 34 min 02 sec)
Heartbeat CPU 0 instructions: 1180000000 cycles: 335552470 heartbeat IPC: 3.627 cumulative IPC: 3.517 (Simulation time: 00 hr 34 min 19 sec)
Heartbeat CPU 0 instructions: 1190000000 cycles: 338329130 heartbeat IPC: 3.601 cumulative IPC: 3.517 (Simulation time: 00 hr 34 min 36 sec)
Heartbeat CPU 0 instructions: 1200000001 cycles: 341093790 heartbeat IPC: 3.617 cumulative IPC: 3.518 (Simulation time: 00 hr 34 min 53 sec)
Heartbeat CPU 0 instructions: 1210000001 cycles: 343845259 heartbeat IPC: 3.634 cumulative IPC: 3.519 (Simulation time: 00 hr 35 min 10 sec)
Heartbeat CPU 0 instructions: 1220000000 cycles: 346619349 heartbeat IPC: 3.605 cumulative IPC: 3.52 (Simulation time: 00 hr 35 min 27 sec)
Heartbeat CPU 0 instructions: 1230000001 cycles: 349380270 heartbeat IPC: 3.622 cumulative IPC: 3.521 (Simulation time: 00 hr 35 min 45 sec)
Heartbeat CPU 0 instructions: 1240000004 cycles: 352153104 heartbeat IPC: 3.606 cumulative IPC: 3.521 (Simulation time: 00 hr 36 min 02 sec)
Heartbeat CPU 0 instructions: 1250000004 cycles: 354918319 heartbeat IPC: 3.616 cumulative IPC: 3.522 (Simulation time: 00 hr 36 min 19 sec)
Heartbeat CPU 0 instructions: 1260000001 cycles: 357678516 heartbeat IPC: 3.623 cumulative IPC: 3.523 (Simulation time: 00 hr 36 min 36 sec)
Heartbeat CPU 0 instructions: 1270000002 cycles: 360449468 heartbeat IPC: 3.609 cumulative IPC: 3.523 (Simulation time: 00 hr 36 min 53 sec)
Heartbeat CPU 0 instructions: 1280000000 cycles: 363220531 heartbeat IPC: 3.609 cumulative IPC: 3.524 (Simulation time: 00 hr 37 min 11 sec)
Heartbeat CPU 0 instructions: 1290000002 cycles: 366022587 heartbeat IPC: 3.569 cumulative IPC: 3.524 (Simulation time: 00 hr 37 min 28 sec)
Heartbeat CPU 0 instructions: 1300000004 cycles: 368809018 heartbeat IPC: 3.589 cumulative IPC: 3.525 (Simulation time: 00 hr 37 min 46 sec)
Heartbeat CPU 0 instructions: 1310000004 cycles: 371575957 heartbeat IPC: 3.614 cumulative IPC: 3.526 (Simulation time: 00 hr 38 min 03 sec)
Heartbeat CPU 0 instructions: 1320000000 cycles: 374390085 heartbeat IPC: 3.553 cumulative IPC: 3.526 (Simulation time: 00 hr 38 min 20 sec)
Heartbeat CPU 0 instructions: 1330000000 cycles: 377094363 heartbeat IPC: 3.698 cumulative IPC: 3.527 (Simulation time: 00 hr 38 min 37 sec)
Heartbeat CPU 0 instructions: 1340000004 cycles: 379795843 heartbeat IPC: 3.702 cumulative IPC: 3.528 (Simulation time: 00 hr 38 min 54 sec)
Heartbeat CPU 0 instructions: 1350000000 cycles: 382498890 heartbeat IPC: 3.7 cumulative IPC: 3.529 (Simulation time: 00 hr 39 min 11 sec)
Heartbeat CPU 0 instructions: 1360000004 cycles: 386483410 heartbeat IPC: 2.51 cumulative IPC: 3.519 (Simulation time: 00 hr 39 min 33 sec)
Heartbeat CPU 0 instructions: 1370000004 cycles: 390729207 heartbeat IPC: 2.355 cumulative IPC: 3.506 (Simulation time: 00 hr 39 min 57 sec)
Heartbeat CPU 0 instructions: 1380000000 cycles: 393451022 heartbeat IPC: 3.674 cumulative IPC: 3.507 (Simulation time: 00 hr 40 min 14 sec)
Heartbeat CPU 0 instructions: 1390000002 cycles: 396173021 heartbeat IPC: 3.674 cumulative IPC: 3.509 (Simulation time: 00 hr 40 min 31 sec)
Heartbeat CPU 0 instructions: 1400000004 cycles: 398895379 heartbeat IPC: 3.673 cumulative IPC: 3.51 (Simulation time: 00 hr 40 min 48 sec)
Heartbeat CPU 0 instructions: 1410000004 cycles: 401640735 heartbeat IPC: 3.643 cumulative IPC: 3.511 (Simulation time: 00 hr 41 min 05 sec)
Heartbeat CPU 0 instructions: 1420000002 cycles: 404356748 heartbeat IPC: 3.682 cumulative IPC: 3.512 (Simulation time: 00 hr 41 min 22 sec)
Heartbeat CPU 0 instructions: 1430000000 cycles: 407072847 heartbeat IPC: 3.682 cumulative IPC: 3.513 (Simulation time: 00 hr 41 min 39 sec)
Heartbeat CPU 0 instructions: 1440000000 cycles: 409788672 heartbeat IPC: 3.682 cumulative IPC: 3.514 (Simulation time: 00 hr 41 min 55 sec)
Heartbeat CPU 0 instructions: 1450000002 cycles: 412561441 heartbeat IPC: 3.607 cumulative IPC: 3.515 (Simulation time: 00 hr 42 min 13 sec)
Heartbeat CPU 0 instructions: 1460000003 cycles: 415295751 heartbeat IPC: 3.657 cumulative IPC: 3.516 (Simulation time: 00 hr 42 min 30 sec)
Heartbeat CPU 0 instructions: 1470000000 cycles: 418080873 heartbeat IPC: 3.591 cumulative IPC: 3.516 (Simulation time: 00 hr 42 min 47 sec)
Heartbeat CPU 0 instructions: 1480000000 cycles: 420905434 heartbeat IPC: 3.54 cumulative IPC: 3.516 (Simulation time: 00 hr 43 min 05 sec)
Heartbeat CPU 0 instructions: 1490000000 cycles: 423658113 heartbeat IPC: 3.633 cumulative IPC: 3.517 (Simulation time: 00 hr 43 min 22 sec)
Heartbeat CPU 0 instructions: 1500000002 cycles: 426420339 heartbeat IPC: 3.62 cumulative IPC: 3.518 (Simulation time: 00 hr 43 min 39 sec)
Heartbeat CPU 0 instructions: 1510000000 cycles: 429197454 heartbeat IPC: 3.601 cumulative IPC: 3.518 (Simulation time: 00 hr 43 min 57 sec)
Heartbeat CPU 0 instructions: 1520000000 cycles: 431957108 heartbeat IPC: 3.624 cumulative IPC: 3.519 (Simulation time: 00 hr 44 min 14 sec)
Heartbeat CPU 0 instructions: 1530000002 cycles: 434732796 heartbeat IPC: 3.603 cumulative IPC: 3.519 (Simulation time: 00 hr 44 min 31 sec)
Heartbeat CPU 0 instructions: 1540000001 cycles: 437491151 heartbeat IPC: 3.625 cumulative IPC: 3.52 (Simulation time: 00 hr 44 min 48 sec)
Heartbeat CPU 0 instructions: 1550000003 cycles: 440268510 heartbeat IPC: 3.601 cumulative IPC: 3.521 (Simulation time: 00 hr 45 min 05 sec)
Heartbeat CPU 0 instructions: 1560000000 cycles: 443024052 heartbeat IPC: 3.629 cumulative IPC: 3.521 (Simulation time: 00 hr 45 min 23 sec)
Heartbeat CPU 0 instructions: 1570000000 cycles: 445801246 heartbeat IPC: 3.601 cumulative IPC: 3.522 (Simulation time: 00 hr 45 min 40 sec)
Heartbeat CPU 0 instructions: 1580000003 cycles: 448554166 heartbeat IPC: 3.633 cumulative IPC: 3.522 (Simulation time: 00 hr 45 min 57 sec)
Heartbeat CPU 0 instructions: 1590000000 cycles: 451330252 heartbeat IPC: 3.602 cumulative IPC: 3.523 (Simulation time: 00 hr 46 min 14 sec)
Heartbeat CPU 0 instructions: 1600000000 cycles: 454081764 heartbeat IPC: 3.634 cumulative IPC: 3.524 (Simulation time: 00 hr 46 min 31 sec)
Heartbeat CPU 0 instructions: 1610000002 cycles: 456857514 heartbeat IPC: 3.603 cumulative IPC: 3.524 (Simulation time: 00 hr 46 min 48 sec)
Heartbeat CPU 0 instructions: 1620000001 cycles: 459606430 heartbeat IPC: 3.638 cumulative IPC: 3.525 (Simulation time: 00 hr 47 min 05 sec)
Heartbeat CPU 0 instructions: 1630000000 cycles: 462384253 heartbeat IPC: 3.6 cumulative IPC: 3.525 (Simulation time: 00 hr 47 min 23 sec)
Heartbeat CPU 0 instructions: 1640000003 cycles: 465134712 heartbeat IPC: 3.636 cumulative IPC: 3.526 (Simulation time: 00 hr 47 min 40 sec)
Heartbeat CPU 0 instructions: 1650000001 cycles: 467916650 heartbeat IPC: 3.595 cumulative IPC: 3.526 (Simulation time: 00 hr 47 min 58 sec)
Heartbeat CPU 0 instructions: 1660000003 cycles: 470670918 heartbeat IPC: 3.631 cumulative IPC: 3.527 (Simulation time: 00 hr 48 min 16 sec)
Heartbeat CPU 0 instructions: 1670000002 cycles: 473432137 heartbeat IPC: 3.622 cumulative IPC: 3.527 (Simulation time: 00 hr 48 min 34 sec)
Heartbeat CPU 0 instructions: 1680000000 cycles: 476203842 heartbeat IPC: 3.608 cumulative IPC: 3.528 (Simulation time: 00 hr 48 min 52 sec)
Heartbeat CPU 0 instructions: 1690000000 cycles: 479023816 heartbeat IPC: 3.546 cumulative IPC: 3.528 (Simulation time: 00 hr 49 min 11 sec)
Heartbeat CPU 0 instructions: 1700000000 cycles: 481776805 heartbeat IPC: 3.632 cumulative IPC: 3.529 (Simulation time: 00 hr 49 min 28 sec)
Heartbeat CPU 0 instructions: 1710000001 cycles: 484524827 heartbeat IPC: 3.639 cumulative IPC: 3.529 (Simulation time: 00 hr 49 min 45 sec)
Heartbeat CPU 0 instructions: 1720000000 cycles: 487263105 heartbeat IPC: 3.652 cumulative IPC: 3.53 (Simulation time: 00 hr 50 min 02 sec)
Heartbeat CPU 0 instructions: 1730000000 cycles: 489977896 heartbeat IPC: 3.684 cumulative IPC: 3.531 (Simulation time: 00 hr 50 min 19 sec)
Heartbeat CPU 0 instructions: 1740000002 cycles: 492693139 heartbeat IPC: 3.683 cumulative IPC: 3.532 (Simulation time: 00 hr 50 min 36 sec)
Heartbeat CPU 0 instructions: 1750000002 cycles: 495436310 heartbeat IPC: 3.645 cumulative IPC: 3.532 (Simulation time: 00 hr 50 min 53 sec)
Heartbeat CPU 0 instructions: 1760000004 cycles: 498157507 heartbeat IPC: 3.675 cumulative IPC: 3.533 (Simulation time: 00 hr 51 min 11 sec)
Heartbeat CPU 0 instructions: 1770000004 cycles: 500878663 heartbeat IPC: 3.675 cumulative IPC: 3.534 (Simulation time: 00 hr 51 min 28 sec)
Heartbeat CPU 0 instructions: 1780000001 cycles: 503599579 heartbeat IPC: 3.675 cumulative IPC: 3.535 (Simulation time: 00 hr 51 min 45 sec)
Heartbeat CPU 0 instructions: 1790000000 cycles: 509106458 heartbeat IPC: 1.816 cumulative IPC: 3.516 (Simulation time: 00 hr 52 min 15 sec)
Heartbeat CPU 0 instructions: 1800000003 cycles: 511902690 heartbeat IPC: 3.576 cumulative IPC: 3.516 (Simulation time: 00 hr 52 min 32 sec)
Heartbeat CPU 0 instructions: 1810000004 cycles: 514659722 heartbeat IPC: 3.627 cumulative IPC: 3.517 (Simulation time: 00 hr 52 min 49 sec)
Heartbeat CPU 0 instructions: 1820000003 cycles: 517441064 heartbeat IPC: 3.595 cumulative IPC: 3.517 (Simulation time: 00 hr 53 min 07 sec)
Heartbeat CPU 0 instructions: 1830000000 cycles: 520241514 heartbeat IPC: 3.571 cumulative IPC: 3.518 (Simulation time: 00 hr 53 min 25 sec)
Heartbeat CPU 0 instructions: 1840000004 cycles: 523046491 heartbeat IPC: 3.565 cumulative IPC: 3.518 (Simulation time: 00 hr 53 min 44 sec)
Heartbeat CPU 0 instructions: 1850000003 cycles: 525885527 heartbeat IPC: 3.522 cumulative IPC: 3.518 (Simulation time: 00 hr 54 min 03 sec)
Heartbeat CPU 0 instructions: 1860000001 cycles: 528723570 heartbeat IPC: 3.524 cumulative IPC: 3.518 (Simulation time: 00 hr 54 min 22 sec)
Heartbeat CPU 0 instructions: 1870000004 cycles: 531554731 heartbeat IPC: 3.532 cumulative IPC: 3.518 (Simulation time: 00 hr 54 min 40 sec)
Heartbeat CPU 0 instructions: 1880000000 cycles: 534369838 heartbeat IPC: 3.552 cumulative IPC: 3.518 (Simulation time: 00 hr 54 min 58 sec)
Heartbeat CPU 0 instructions: 1890000002 cycles: 537204098 heartbeat IPC: 3.528 cumulative IPC: 3.518 (Simulation time: 00 hr 55 min 15 sec)
Heartbeat CPU 0 instructions: 1900000000 cycles: 540041916 heartbeat IPC: 3.524 cumulative IPC: 3.518 (Simulation time: 00 hr 55 min 33 sec)
Heartbeat CPU 0 instructions: 1910000001 cycles: 542851502 heartbeat IPC: 3.559 cumulative IPC: 3.518 (Simulation time: 00 hr 55 min 51 sec)
Heartbeat CPU 0 instructions: 1920000000 cycles: 545691947 heartbeat IPC: 3.521 cumulative IPC: 3.518 (Simulation time: 00 hr 56 min 09 sec)
Heartbeat CPU 0 instructions: 1930000003 cycles: 548472177 heartbeat IPC: 3.597 cumulative IPC: 3.519 (Simulation time: 00 hr 56 min 26 sec)
Heartbeat CPU 0 instructions: 1940000002 cycles: 551249522 heartbeat IPC: 3.601 cumulative IPC: 3.519 (Simulation time: 00 hr 56 min 44 sec)
Heartbeat CPU 0 instructions: 1950000002 cycles: 554003192 heartbeat IPC: 3.632 cumulative IPC: 3.52 (Simulation time: 00 hr 57 min 01 sec)
Heartbeat CPU 0 instructions: 1960000003 cycles: 558903319 heartbeat IPC: 2.041 cumulative IPC: 3.507 (Simulation time: 00 hr 57 min 28 sec)
Heartbeat CPU 0 instructions: 1970000004 cycles: 562266681 heartbeat IPC: 2.973 cumulative IPC: 3.504 (Simulation time: 00 hr 57 min 49 sec)
Heartbeat CPU 0 instructions: 1980000000 cycles: 565017752 heartbeat IPC: 3.635 cumulative IPC: 3.504 (Simulation time: 00 hr 58 min 07 sec)
Heartbeat CPU 0 instructions: 1990000003 cycles: 567788405 heartbeat IPC: 3.609 cumulative IPC: 3.505 (Simulation time: 00 hr 58 min 26 sec)
*** Reached end of trace: (0, "traces/603.bwaves_s-1080B.champsimtrace.xz")
Heartbeat CPU 0 instructions: 2000000001 cycles: 570609296 heartbeat IPC: 3.545 cumulative IPC: 3.505 (Simulation time: 00 hr 58 min 44 sec)
Heartbeat CPU 0 instructions: 2010000004 cycles: 574625660 heartbeat IPC: 2.49 cumulative IPC: 3.498 (Simulation time: 00 hr 59 min 08 sec)
Heartbeat CPU 0 instructions: 2020000001 cycles: 579274609 heartbeat IPC: 2.151 cumulative IPC: 3.487 (Simulation time: 00 hr 59 min 35 sec)
Heartbeat CPU 0 instructions: 2030000000 cycles: 581975424 heartbeat IPC: 3.703 cumulative IPC: 3.488 (Simulation time: 00 hr 59 min 53 sec)
Heartbeat CPU 0 instructions: 2040000002 cycles: 584677021 heartbeat IPC: 3.702 cumulative IPC: 3.489 (Simulation time: 01 hr 00 min 10 sec)
Heartbeat CPU 0 instructions: 2050000003 cycles: 587439897 heartbeat IPC: 3.619 cumulative IPC: 3.49 (Simulation time: 01 hr 00 min 27 sec)
Heartbeat CPU 0 instructions: 2060000000 cycles: 590166820 heartbeat IPC: 3.667 cumulative IPC: 3.491 (Simulation time: 01 hr 00 min 44 sec)
Heartbeat CPU 0 instructions: 2070000002 cycles: 592891540 heartbeat IPC: 3.67 cumulative IPC: 3.491 (Simulation time: 01 hr 01 min 01 sec)
Heartbeat CPU 0 instructions: 2080000003 cycles: 595617291 heartbeat IPC: 3.669 cumulative IPC: 3.492 (Simulation time: 01 hr 01 min 18 sec)
Heartbeat CPU 0 instructions: 2090000000 cycles: 598365865 heartbeat IPC: 3.638 cumulative IPC: 3.493 (Simulation time: 01 hr 01 min 35 sec)
Heartbeat CPU 0 instructions: 2100000000 cycles: 601119416 heartbeat IPC: 3.632 cumulative IPC: 3.493 (Simulation time: 01 hr 01 min 52 sec)
Heartbeat CPU 0 instructions: 2110000000 cycles: 603861008 heartbeat IPC: 3.648 cumulative IPC: 3.494 (Simulation time: 01 hr 02 min 09 sec)
Heartbeat CPU 0 instructions: 2120000000 cycles: 606576236 heartbeat IPC: 3.683 cumulative IPC: 3.495 (Simulation time: 01 hr 02 min 26 sec)
Heartbeat CPU 0 instructions: 2130000001 cycles: 609291006 heartbeat IPC: 3.684 cumulative IPC: 3.496 (Simulation time: 01 hr 02 min 43 sec)
Heartbeat CPU 0 instructions: 2140000000 cycles: 612005089 heartbeat IPC: 3.684 cumulative IPC: 3.497 (Simulation time: 01 hr 03 min 00 sec)
Heartbeat CPU 0 instructions: 2150000000 cycles: 614751520 heartbeat IPC: 3.641 cumulative IPC: 3.497 (Simulation time: 01 hr 03 min 17 sec)
Heartbeat CPU 0 instructions: 2160000000 cycles: 617499877 heartbeat IPC: 3.639 cumulative IPC: 3.498 (Simulation time: 01 hr 03 min 35 sec)
Heartbeat CPU 0 instructions: 2170000003 cycles: 620275349 heartbeat IPC: 3.603 cumulative IPC: 3.498 (Simulation time: 01 hr 03 min 52 sec)
Heartbeat CPU 0 instructions: 2180000001 cycles: 623026499 heartbeat IPC: 3.635 cumulative IPC: 3.499 (Simulation time: 01 hr 04 min 10 sec)
Heartbeat CPU 0 instructions: 2190000000 cycles: 625798965 heartbeat IPC: 3.607 cumulative IPC: 3.5 (Simulation time: 01 hr 04 min 27 sec)
Heartbeat CPU 0 instructions: 2200000000 cycles: 628572433 heartbeat IPC: 3.606 cumulative IPC: 3.5 (Simulation time: 01 hr 04 min 45 sec)
Heartbeat CPU 0 instructions: 2210000001 cycles: 631325277 heartbeat IPC: 3.633 cumulative IPC: 3.501 (Simulation time: 01 hr 05 min 02 sec)
Heartbeat CPU 0 instructions: 2220000000 cycles: 634097428 heartbeat IPC: 3.607 cumulative IPC: 3.501 (Simulation time: 01 hr 05 min 19 sec)
Heartbeat CPU 0 instructions: 2230000000 cycles: 636849992 heartbeat IPC: 3.633 cumulative IPC: 3.502 (Simulation time: 01 hr 05 min 37 sec)
Heartbeat CPU 0 instructions: 2240000001 cycles: 639623006 heartbeat IPC: 3.606 cumulative IPC: 3.502 (Simulation time: 01 hr 05 min 54 sec)
Heartbeat CPU 0 instructions: 2250000003 cycles: 642395478 heartbeat IPC: 3.607 cumulative IPC: 3.503 (Simulation time: 01 hr 06 min 12 sec)
Heartbeat CPU 0 instructions: 2260000001 cycles: 645145572 heartbeat IPC: 3.636 cumulative IPC: 3.503 (Simulation time: 01 hr 06 min 29 sec)
Heartbeat CPU 0 instructions: 2270000004 cycles: 647921571 heartbeat IPC: 3.602 cumulative IPC: 3.504 (Simulation time: 01 hr 06 min 46 sec)
Heartbeat CPU 0 instructions: 2280000000 cycles: 650697952 heartbeat IPC: 3.602 cumulative IPC: 3.504 (Simulation time: 01 hr 07 min 03 sec)
Heartbeat CPU 0 instructions: 2290000000 cycles: 653447552 heartbeat IPC: 3.637 cumulative IPC: 3.504 (Simulation time: 01 hr 07 min 20 sec)
Heartbeat CPU 0 instructions: 2300000000 cycles: 656220391 heartbeat IPC: 3.606 cumulative IPC: 3.505 (Simulation time: 01 hr 07 min 38 sec)
Heartbeat CPU 0 instructions: 2310000000 cycles: 658973625 heartbeat IPC: 3.632 cumulative IPC: 3.505 (Simulation time: 01 hr 07 min 55 sec)
Heartbeat CPU 0 instructions: 2320000002 cycles: 661751730 heartbeat IPC: 3.6 cumulative IPC: 3.506 (Simulation time: 01 hr 08 min 13 sec)
Heartbeat CPU 0 instructions: 2330000000 cycles: 664498622 heartbeat IPC: 3.64 cumulative IPC: 3.506 (Simulation time: 01 hr 08 min 30 sec)
Heartbeat CPU 0 instructions: 2340000000 cycles: 667238962 heartbeat IPC: 3.649 cumulative IPC: 3.507 (Simulation time: 01 hr 08 min 47 sec)
Heartbeat CPU 0 instructions: 2350000002 cycles: 669953862 heartbeat IPC: 3.683 cumulative IPC: 3.508 (Simulation time: 01 hr 09 min 03 sec)
Heartbeat CPU 0 instructions: 2360000001 cycles: 672667594 heartbeat IPC: 3.685 cumulative IPC: 3.508 (Simulation time: 01 hr 09 min 20 sec)
Heartbeat CPU 0 instructions: 2370000001 cycles: 675383034 heartbeat IPC: 3.683 cumulative IPC: 3.509 (Simulation time: 01 hr 09 min 38 sec)
Heartbeat CPU 0 instructions: 2380000001 cycles: 678126458 heartbeat IPC: 3.645 cumulative IPC: 3.51 (Simulation time: 01 hr 09 min 54 sec)
Heartbeat CPU 0 instructions: 2390000002 cycles: 680904540 heartbeat IPC: 3.6 cumulative IPC: 3.51 (Simulation time: 01 hr 10 min 12 sec)
Heartbeat CPU 0 instructions: 2400000000 cycles: 683628955 heartbeat IPC: 3.671 cumulative IPC: 3.511 (Simulation time: 01 hr 10 min 29 sec)
Heartbeat CPU 0 instructions: 2410000004 cycles: 686355343 heartbeat IPC: 3.668 cumulative IPC: 3.511 (Simulation time: 01 hr 10 min 46 sec)
Heartbeat CPU 0 instructions: 2420000000 cycles: 689080427 heartbeat IPC: 3.67 cumulative IPC: 3.512 (Simulation time: 01 hr 11 min 03 sec)
Heartbeat CPU 0 instructions: 2430000004 cycles: 691861960 heartbeat IPC: 3.595 cumulative IPC: 3.512 (Simulation time: 01 hr 11 min 20 sec)
Heartbeat CPU 0 instructions: 2440000001 cycles: 694564543 heartbeat IPC: 3.7 cumulative IPC: 3.513 (Simulation time: 01 hr 11 min 37 sec)
Heartbeat CPU 0 instructions: 2450000001 cycles: 697264849 heartbeat IPC: 3.703 cumulative IPC: 3.514 (Simulation time: 01 hr 11 min 54 sec)
Heartbeat CPU 0 instructions: 2460000003 cycles: 699965681 heartbeat IPC: 3.703 cumulative IPC: 3.514 (Simulation time: 01 hr 12 min 11 sec)
Heartbeat CPU 0 instructions: 2470000000 cycles: 705034067 heartbeat IPC: 1.973 cumulative IPC: 3.503 (Simulation time: 01 hr 12 min 38 sec)
Heartbeat CPU 0 instructions: 2480000000 cycles: 708444263 heartbeat IPC: 2.932 cumulative IPC: 3.501 (Simulation time: 01 hr 12 min 59 sec)
Heartbeat CPU 0 instructions: 2490000000 cycles: 711202028 heartbeat IPC: 3.626 cumulative IPC: 3.501 (Simulation time: 01 hr 13 min 16 sec)
Heartbeat CPU 0 instructions: 2500000001 cycles: 713971781 heartbeat IPC: 3.61 cumulative IPC: 3.502 (Simulation time: 01 hr 13 min 33 sec)
Heartbeat CPU 0 instructions: 2510000003 cycles: 716721892 heartbeat IPC: 3.636 cumulative IPC: 3.502 (Simulation time: 01 hr 13 min 50 sec)
Heartbeat CPU 0 instructions: 2520000004 cycles: 719479489 heartbeat IPC: 3.626 cumulative IPC: 3.503 (Simulation time: 01 hr 14 min 07 sec)
Heartbeat CPU 0 instructions: 2530000001 cycles: 722261386 heartbeat IPC: 3.595 cumulative IPC: 3.503 (Simulation time: 01 hr 14 min 25 sec)
Heartbeat CPU 0 instructions: 2540000002 cycles: 725052914 heartbeat IPC: 3.582 cumulative IPC: 3.503 (Simulation time: 01 hr 14 min 43 sec)
Heartbeat CPU 0 instructions: 2550000004 cycles: 727826192 heartbeat IPC: 3.606 cumulative IPC: 3.504 (Simulation time: 01 hr 15 min 01 sec)
Heartbeat CPU 0 instructions: 2560000002 cycles: 730601103 heartbeat IPC: 3.604 cumulative IPC: 3.504 (Simulation time: 01 hr 15 min 19 sec)
Heartbeat CPU 0 instructions: 2570000001 cycles: 733376978 heartbeat IPC: 3.602 cumulative IPC: 3.504 (Simulation time: 01 hr 15 min 36 sec)
Heartbeat CPU 0 instructions: 2580000002 cycles: 736151469 heartbeat IPC: 3.604 cumulative IPC: 3.505 (Simulation time: 01 hr 15 min 54 sec)
Heartbeat CPU 0 instructions: 2590000002 cycles: 738931483 heartbeat IPC: 3.597 cumulative IPC: 3.505 (Simulation time: 01 hr 16 min 12 sec)
Heartbeat CPU 0 instructions: 2600000004 cycles: 741712792 heartbeat IPC: 3.595 cumulative IPC: 3.505 (Simulation time: 01 hr 16 min 30 sec)
Heartbeat CPU 0 instructions: 2610000001 cycles: 744483302 heartbeat IPC: 3.609 cumulative IPC: 3.506 (Simulation time: 01 hr 16 min 48 sec)
Heartbeat CPU 0 instructions: 2620000004 cycles: 747259742 heartbeat IPC: 3.602 cumulative IPC: 3.506 (Simulation time: 01 hr 17 min 06 sec)
Heartbeat CPU 0 instructions: 2630000004 cycles: 750031903 heartbeat IPC: 3.607 cumulative IPC: 3.507 (Simulation time: 01 hr 17 min 24 sec)
Heartbeat CPU 0 instructions: 2640000003 cycles: 752806399 heartbeat IPC: 3.604 cumulative IPC: 3.507 (Simulation time: 01 hr 17 min 42 sec)
Heartbeat CPU 0 instructions: 2650000000 cycles: 755580751 heartbeat IPC: 3.604 cumulative IPC: 3.507 (Simulation time: 01 hr 17 min 59 sec)
Heartbeat CPU 0 instructions: 2660000000 cycles: 758329272 heartbeat IPC: 3.638 cumulative IPC: 3.508 (Simulation time: 01 hr 18 min 16 sec)
Heartbeat CPU 0 instructions: 2670000001 cycles: 761084185 heartbeat IPC: 3.63 cumulative IPC: 3.508 (Simulation time: 01 hr 18 min 34 sec)
Heartbeat CPU 0 instructions: 2680000000 cycles: 763853654 heartbeat IPC: 3.611 cumulative IPC: 3.509 (Simulation time: 01 hr 18 min 51 sec)
Heartbeat CPU 0 instructions: 2690000001 cycles: 766574509 heartbeat IPC: 3.675 cumulative IPC: 3.509 (Simulation time: 01 hr 19 min 08 sec)
Heartbeat CPU 0 instructions: 2700000002 cycles: 769295389 heartbeat IPC: 3.675 cumulative IPC: 3.51 (Simulation time: 01 hr 19 min 25 sec)
Heartbeat CPU 0 instructions: 2710000003 cycles: 772016558 heartbeat IPC: 3.675 cumulative IPC: 3.51 (Simulation time: 01 hr 19 min 42 sec)
Heartbeat CPU 0 instructions: 2720000001 cycles: 774822716 heartbeat IPC: 3.564 cumulative IPC: 3.51 (Simulation time: 01 hr 19 min 59 sec)
Heartbeat CPU 0 instructions: 2730000001 cycles: 780241896 heartbeat IPC: 1.845 cumulative IPC: 3.499 (Simulation time: 01 hr 20 min 28 sec)
Heartbeat CPU 0 instructions: 2740000001 cycles: 783239798 heartbeat IPC: 3.336 cumulative IPC: 3.498 (Simulation time: 01 hr 20 min 47 sec)
Heartbeat CPU 0 instructions: 2750000000 cycles: 785953526 heartbeat IPC: 3.685 cumulative IPC: 3.499 (Simulation time: 01 hr 21 min 04 sec)
Heartbeat CPU 0 instructions: 2760000001 cycles: 788668496 heartbeat IPC: 3.683 cumulative IPC: 3.5 (Simulation time: 01 hr 21 min 21 sec)
Heartbeat CPU 0 instructions: 2770000001 cycles: 791382299 heartbeat IPC: 3.685 cumulative IPC: 3.5 (Simulation time: 01 hr 21 min 38 sec)
Heartbeat CPU 0 instructions: 2780000000 cycles: 794126886 heartbeat IPC: 3.644 cumulative IPC: 3.501 (Simulation time: 01 hr 21 min 55 sec)
Heartbeat CPU 0 instructions: 2790000001 cycles: 796877130 heartbeat IPC: 3.636 cumulative IPC: 3.501 (Simulation time: 01 hr 22 min 12 sec)
Heartbeat CPU 0 instructions: 2800000000 cycles: 799680769 heartbeat IPC: 3.567 cumulative IPC: 3.501 (Simulation time: 01 hr 22 min 30 sec)
Heartbeat CPU 0 instructions: 2810000004 cycles: 802460695 heartbeat IPC: 3.597 cumulative IPC: 3.502 (Simulation time: 01 hr 22 min 47 sec)
Heartbeat CPU 0 instructions: 2820000001 cycles: 805235574 heartbeat IPC: 3.604 cumulative IPC: 3.502 (Simulation time: 01 hr 23 min 05 sec)
Heartbeat CPU 0 instructions: 2830000003 cycles: 808007217 heartbeat IPC: 3.608 cumulative IPC: 3.502 (Simulation time: 01 hr 23 min 22 sec)
Heartbeat CPU 0 instructions: 2840000000 cycles: 810779533 heartbeat IPC: 3.607 cumulative IPC: 3.503 (Simulation time: 01 hr 23 min 39 sec)
Heartbeat CPU 0 instructions: 2850000000 cycles: 813552034 heartbeat IPC: 3.607 cumulative IPC: 3.503 (Simulation time: 01 hr 23 min 57 sec)
Heartbeat CPU 0 instructions: 2860000002 cycles: 816328098 heartbeat IPC: 3.602 cumulative IPC: 3.503 (Simulation time: 01 hr 24 min 14 sec)
Heartbeat CPU 0 instructions: 2870000000 cycles: 819105031 heartbeat IPC: 3.601 cumulative IPC: 3.504 (Simulation time: 01 hr 24 min 32 sec)
Heartbeat CPU 0 instructions: 2880000002 cycles: 821878599 heartbeat IPC: 3.605 cumulative IPC: 3.504 (Simulation time: 01 hr 24 min 49 sec)
Heartbeat CPU 0 instructions: 2890000001 cycles: 824658491 heartbeat IPC: 3.597 cumulative IPC: 3.504 (Simulation time: 01 hr 25 min 06 sec)
Heartbeat CPU 0 instructions: 2900000004 cycles: 827429894 heartbeat IPC: 3.608 cumulative IPC: 3.505 (Simulation time: 01 hr 25 min 24 sec)
Heartbeat CPU 0 instructions: 2910000001 cycles: 830202400 heartbeat IPC: 3.607 cumulative IPC: 3.505 (Simulation time: 01 hr 25 min 41 sec)
Heartbeat CPU 0 instructions: 2920000004 cycles: 832975915 heartbeat IPC: 3.606 cumulative IPC: 3.506 (Simulation time: 01 hr 25 min 58 sec)
Heartbeat CPU 0 instructions: 2930000001 cycles: 835744099 heartbeat IPC: 3.612 cumulative IPC: 3.506 (Simulation time: 01 hr 26 min 16 sec)
Heartbeat CPU 0 instructions: 2940000001 cycles: 838539154 heartbeat IPC: 3.578 cumulative IPC: 3.506 (Simulation time: 01 hr 26 min 33 sec)
Heartbeat CPU 0 instructions: 2950000001 cycles: 841320904 heartbeat IPC: 3.595 cumulative IPC: 3.506 (Simulation time: 01 hr 26 min 50 sec)
Heartbeat CPU 0 instructions: 2960000004 cycles: 844068403 heartbeat IPC: 3.64 cumulative IPC: 3.507 (Simulation time: 01 hr 27 min 08 sec)
Heartbeat CPU 0 instructions: 2970000000 cycles: 846806835 heartbeat IPC: 3.652 cumulative IPC: 3.507 (Simulation time: 01 hr 27 min 25 sec)
Heartbeat CPU 0 instructions: 2980000002 cycles: 849521772 heartbeat IPC: 3.683 cumulative IPC: 3.508 (Simulation time: 01 hr 27 min 42 sec)
Heartbeat CPU 0 instructions: 2990000001 cycles: 852235961 heartbeat IPC: 3.684 cumulative IPC: 3.508 (Simulation time: 01 hr 27 min 59 sec)
Heartbeat CPU 0 instructions: 3000000000 cycles: 854949983 heartbeat IPC: 3.685 cumulative IPC: 3.509 (Simulation time: 01 hr 28 min 15 sec)
Heartbeat CPU 0 instructions: 3010000004 cycles: 858558334 heartbeat IPC: 2.771 cumulative IPC: 3.506 (Simulation time: 01 hr 28 min 36 sec)
Heartbeat CPU 0 instructions: 3020000000 cycles: 863282863 heartbeat IPC: 2.117 cumulative IPC: 3.498 (Simulation time: 01 hr 29 min 02 sec)
Heartbeat CPU 0 instructions: 3030000001 cycles: 865985305 heartbeat IPC: 3.7 cumulative IPC: 3.499 (Simulation time: 01 hr 29 min 19 sec)
Heartbeat CPU 0 instructions: 3040000002 cycles: 868686586 heartbeat IPC: 3.702 cumulative IPC: 3.5 (Simulation time: 01 hr 29 min 36 sec)
Heartbeat CPU 0 instructions: 3050000004 cycles: 871387071 heartbeat IPC: 3.703 cumulative IPC: 3.5 (Simulation time: 01 hr 29 min 53 sec)
Heartbeat CPU 0 instructions: 3060000002 cycles: 874193653 heartbeat IPC: 3.563 cumulative IPC: 3.5 (Simulation time: 01 hr 30 min 10 sec)
Heartbeat CPU 0 instructions: 3070000001 cycles: 876975847 heartbeat IPC: 3.594 cumulative IPC: 3.501 (Simulation time: 01 hr 30 min 28 sec)
Heartbeat CPU 0 instructions: 3080000000 cycles: 879748159 heartbeat IPC: 3.607 cumulative IPC: 3.501 (Simulation time: 01 hr 30 min 46 sec)
Heartbeat CPU 0 instructions: 3090000004 cycles: 882531959 heartbeat IPC: 3.592 cumulative IPC: 3.501 (Simulation time: 01 hr 31 min 03 sec)
Heartbeat CPU 0 instructions: 3100000000 cycles: 885304622 heartbeat IPC: 3.607 cumulative IPC: 3.502 (Simulation time: 01 hr 31 min 20 sec)
Heartbeat CPU 0 instructions: 3110000000 cycles: 888064718 heartbeat IPC: 3.623 cumulative IPC: 3.502 (Simulation time: 01 hr 31 min 38 sec)
Heartbeat CPU 0 instructions: 3120000002 cycles: 890834253 heartbeat IPC: 3.611 cumulative IPC: 3.502 (Simulation time: 01 hr 31 min 55 sec)
Heartbeat CPU 0 instructions: 3130000001 cycles: 893600502 heartbeat IPC: 3.615 cumulative IPC: 3.503 (Simulation time: 01 hr 32 min 13 sec)
Heartbeat CPU 0 instructions: 3140000002 cycles: 896354140 heartbeat IPC: 3.632 cumulative IPC: 3.503 (Simulation time: 01 hr 32 min 30 sec)
Heartbeat CPU 0 instructions: 3150000000 cycles: 899129074 heartbeat IPC: 3.604 cumulative IPC: 3.503 (Simulation time: 01 hr 32 min 47 sec)
Heartbeat CPU 0 instructions: 3160000004 cycles: 901891045 heartbeat IPC: 3.621 cumulative IPC: 3.504 (Simulation time: 01 hr 33 min 05 sec)
Heartbeat CPU 0 instructions: 3170000000 cycles: 904667111 heartbeat IPC: 3.602 cumulative IPC: 3.504 (Simulation time: 01 hr 33 min 22 sec)
Heartbeat CPU 0 instructions: 3180000004 cycles: 907418230 heartbeat IPC: 3.635 cumulative IPC: 3.504 (Simulation time: 01 hr 33 min 39 sec)
Heartbeat CPU 0 instructions: 3190000003 cycles: 910190944 heartbeat IPC: 3.607 cumulative IPC: 3.505 (Simulation time: 01 hr 33 min 57 sec)
Heartbeat CPU 0 instructions: 3200000000 cycles: 912949662 heartbeat IPC: 3.625 cumulative IPC: 3.505 (Simulation time: 01 hr 34 min 14 sec)
Heartbeat CPU 0 instructions: 3210000000 cycles: 915696657 heartbeat IPC: 3.64 cumulative IPC: 3.506 (Simulation time: 01 hr 34 min 31 sec)
Heartbeat CPU 0 instructions: 3220000004 cycles: 918466083 heartbeat IPC: 3.611 cumulative IPC: 3.506 (Simulation time: 01 hr 34 min 48 sec)
Heartbeat CPU 0 instructions: 3230000000 cycles: 921221070 heartbeat IPC: 3.63 cumulative IPC: 3.506 (Simulation time: 01 hr 35 min 05 sec)
Heartbeat CPU 0 instructions: 3240000003 cycles: 923990907 heartbeat IPC: 3.61 cumulative IPC: 3.507 (Simulation time: 01 hr 35 min 23 sec)
Heartbeat CPU 0 instructions: 3250000000 cycles: 926747490 heartbeat IPC: 3.628 cumulative IPC: 3.507 (Simulation time: 01 hr 35 min 40 sec)
Heartbeat CPU 0 instructions: 3260000000 cycles: 929505738 heartbeat IPC: 3.625 cumulative IPC: 3.507 (Simulation time: 01 hr 35 min 57 sec)
Heartbeat CPU 0 instructions: 3270000001 cycles: 932273908 heartbeat IPC: 3.612 cumulative IPC: 3.508 (Simulation time: 01 hr 36 min 14 sec)
Heartbeat CPU 0 instructions: 3280000002 cycles: 935036454 heartbeat IPC: 3.62 cumulative IPC: 3.508 (Simulation time: 01 hr 36 min 32 sec)
Heartbeat CPU 0 instructions: 3290000001 cycles: 937832820 heartbeat IPC: 3.576 cumulative IPC: 3.508 (Simulation time: 01 hr 36 min 50 sec)
Heartbeat CPU 0 instructions: 3300000003 cycles: 940612692 heartbeat IPC: 3.597 cumulative IPC: 3.508 (Simulation time: 01 hr 37 min 07 sec)
Heartbeat CPU 0 instructions: 3310000003 cycles: 943377951 heartbeat IPC: 3.616 cumulative IPC: 3.509 (Simulation time: 01 hr 37 min 24 sec)
Heartbeat CPU 0 instructions: 3320000002 cycles: 946187919 heartbeat IPC: 3.559 cumulative IPC: 3.509 (Simulation time: 01 hr 37 min 42 sec)
Heartbeat CPU 0 instructions: 3330000002 cycles: 948890819 heartbeat IPC: 3.7 cumulative IPC: 3.509 (Simulation time: 01 hr 37 min 59 sec)
Heartbeat CPU 0 instructions: 3340000003 cycles: 951591251 heartbeat IPC: 3.703 cumulative IPC: 3.51 (Simulation time: 01 hr 38 min 16 sec)
Heartbeat CPU 0 instructions: 3350000001 cycles: 954292649 heartbeat IPC: 3.702 cumulative IPC: 3.51 (Simulation time: 01 hr 38 min 33 sec)
Heartbeat CPU 0 instructions: 3360000003 cycles: 958277129 heartbeat IPC: 2.51 cumulative IPC: 3.506 (Simulation time: 01 hr 38 min 56 sec)
Heartbeat CPU 0 instructions: 3370000003 cycles: 962531038 heartbeat IPC: 2.351 cumulative IPC: 3.501 (Simulation time: 01 hr 39 min 20 sec)
Heartbeat CPU 0 instructions: 3380000000 cycles: 965251041 heartbeat IPC: 3.676 cumulative IPC: 3.502 (Simulation time: 01 hr 39 min 36 sec)
Heartbeat CPU 0 instructions: 3390000001 cycles: 967970778 heartbeat IPC: 3.677 cumulative IPC: 3.502 (Simulation time: 01 hr 39 min 53 sec)
Heartbeat CPU 0 instructions: 3400000003 cycles: 970691494 heartbeat IPC: 3.676 cumulative IPC: 3.503 (Simulation time: 01 hr 40 min 11 sec)
Heartbeat CPU 0 instructions: 3410000003 cycles: 973435937 heartbeat IPC: 3.644 cumulative IPC: 3.503 (Simulation time: 01 hr 40 min 28 sec)
Heartbeat CPU 0 instructions: 3420000001 cycles: 976151023 heartbeat IPC: 3.683 cumulative IPC: 3.504 (Simulation time: 01 hr 40 min 44 sec)
Heartbeat CPU 0 instructions: 3430000004 cycles: 978866052 heartbeat IPC: 3.683 cumulative IPC: 3.504 (Simulation time: 01 hr 41 min 01 sec)
Heartbeat CPU 0 instructions: 3440000004 cycles: 981579892 heartbeat IPC: 3.685 cumulative IPC: 3.505 (Simulation time: 01 hr 41 min 18 sec)
Heartbeat CPU 0 instructions: 3450000001 cycles: 984346516 heartbeat IPC: 3.615 cumulative IPC: 3.505 (Simulation time: 01 hr 41 min 36 sec)
Heartbeat CPU 0 instructions: 3460000002 cycles: 987074609 heartbeat IPC: 3.666 cumulative IPC: 3.505 (Simulation time: 01 hr 41 min 53 sec)
Heartbeat CPU 0 instructions: 3470000000 cycles: 989851930 heartbeat IPC: 3.601 cumulative IPC: 3.506 (Simulation time: 01 hr 42 min 10 sec)
Heartbeat CPU 0 instructions: 3480000004 cycles: 992667529 heartbeat IPC: 3.552 cumulative IPC: 3.506 (Simulation time: 01 hr 42 min 28 sec)
Heartbeat CPU 0 instructions: 3490000004 cycles: 995418433 heartbeat IPC: 3.635 cumulative IPC: 3.506 (Simulation time: 01 hr 42 min 45 sec)
Heartbeat CPU 0 instructions: 3500000001 cycles: 998179158 heartbeat IPC: 3.622 cumulative IPC: 3.506 (Simulation time: 01 hr 43 min 03 sec)
Heartbeat CPU 0 instructions: 3510000004 cycles: 1000951906 heartbeat IPC: 3.607 cumulative IPC: 3.507 (Simulation time: 01 hr 43 min 20 sec)
Heartbeat CPU 0 instructions: 3520000001 cycles: 1003710699 heartbeat IPC: 3.625 cumulative IPC: 3.507 (Simulation time: 01 hr 43 min 37 sec)
Heartbeat CPU 0 instructions: 3530000001 cycles: 1006485532 heartbeat IPC: 3.604 cumulative IPC: 3.507 (Simulation time: 01 hr 43 min 55 sec)
Heartbeat CPU 0 instructions: 3540000000 cycles: 1009241127 heartbeat IPC: 3.629 cumulative IPC: 3.508 (Simulation time: 01 hr 44 min 12 sec)
Heartbeat CPU 0 instructions: 3550000002 cycles: 1012018492 heartbeat IPC: 3.601 cumulative IPC: 3.508 (Simulation time: 01 hr 44 min 29 sec)
Heartbeat CPU 0 instructions: 3560000001 cycles: 1014773632 heartbeat IPC: 3.63 cumulative IPC: 3.508 (Simulation time: 01 hr 44 min 46 sec)
Heartbeat CPU 0 instructions: 3570000003 cycles: 1017549695 heartbeat IPC: 3.602 cumulative IPC: 3.508 (Simulation time: 01 hr 45 min 04 sec)
Heartbeat CPU 0 instructions: 3580000002 cycles: 1020300801 heartbeat IPC: 3.635 cumulative IPC: 3.509 (Simulation time: 01 hr 45 min 21 sec)
Heartbeat CPU 0 instructions: 3590000001 cycles: 1023075781 heartbeat IPC: 3.604 cumulative IPC: 3.509 (Simulation time: 01 hr 45 min 38 sec)
Heartbeat CPU 0 instructions: 3600000002 cycles: 1025826333 heartbeat IPC: 3.636 cumulative IPC: 3.509 (Simulation time: 01 hr 45 min 55 sec)
Heartbeat CPU 0 instructions: 3610000001 cycles: 1028603415 heartbeat IPC: 3.601 cumulative IPC: 3.51 (Simulation time: 01 hr 46 min 12 sec)
Heartbeat CPU 0 instructions: 3620000000 cycles: 1031352818 heartbeat IPC: 3.637 cumulative IPC: 3.51 (Simulation time: 01 hr 46 min 30 sec)
Heartbeat CPU 0 instructions: 3630000004 cycles: 1034131465 heartbeat IPC: 3.599 cumulative IPC: 3.51 (Simulation time: 01 hr 46 min 47 sec)
Heartbeat CPU 0 instructions: 3640000002 cycles: 1036882765 heartbeat IPC: 3.635 cumulative IPC: 3.511 (Simulation time: 01 hr 47 min 04 sec)
Heartbeat CPU 0 instructions: 3650000000 cycles: 1039665544 heartbeat IPC: 3.594 cumulative IPC: 3.511 (Simulation time: 01 hr 47 min 21 sec)
Heartbeat CPU 0 instructions: 3660000002 cycles: 1042420302 heartbeat IPC: 3.63 cumulative IPC: 3.511 (Simulation time: 01 hr 47 min 38 sec)
Heartbeat CPU 0 instructions: 3670000001 cycles: 1045183485 heartbeat IPC: 3.619 cumulative IPC: 3.511 (Simulation time: 01 hr 47 min 56 sec)
Heartbeat CPU 0 instructions: 3680000004 cycles: 1047954026 heartbeat IPC: 3.609 cumulative IPC: 3.512 (Simulation time: 01 hr 48 min 13 sec)
Heartbeat CPU 0 instructions: 3690000004 cycles: 1050774127 heartbeat IPC: 3.546 cumulative IPC: 3.512 (Simulation time: 01 hr 48 min 31 sec)
Heartbeat CPU 0 instructions: 3700000004 cycles: 1053525363 heartbeat IPC: 3.635 cumulative IPC: 3.512 (Simulation time: 01 hr 48 min 49 sec)
Heartbeat CPU 0 instructions: 3710000000 cycles: 1056273754 heartbeat IPC: 3.638 cumulative IPC: 3.512 (Simulation time: 01 hr 49 min 06 sec)
Heartbeat CPU 0 instructions: 3720000004 cycles: 1059013696 heartbeat IPC: 3.65 cumulative IPC: 3.513 (Simulation time: 01 hr 49 min 23 sec)
Heartbeat CPU 0 instructions: 3730000001 cycles: 1061728695 heartbeat IPC: 3.683 cumulative IPC: 3.513 (Simulation time: 01 hr 49 min 40 sec)
Heartbeat CPU 0 instructions: 3740000001 cycles: 1064444501 heartbeat IPC: 3.682 cumulative IPC: 3.514 (Simulation time: 01 hr 49 min 57 sec)
Heartbeat CPU 0 instructions: 3750000001 cycles: 1067187355 heartbeat IPC: 3.646 cumulative IPC: 3.514 (Simulation time: 01 hr 50 min 14 sec)
Heartbeat CPU 0 instructions: 3760000003 cycles: 1069907746 heartbeat IPC: 3.676 cumulative IPC: 3.514 (Simulation time: 01 hr 50 min 31 sec)
Heartbeat CPU 0 instructions: 3770000003 cycles: 1072628646 heartbeat IPC: 3.675 cumulative IPC: 3.515 (Simulation time: 01 hr 50 min 47 sec)
Heartbeat CPU 0 instructions: 3780000000 cycles: 1075349650 heartbeat IPC: 3.675 cumulative IPC: 3.515 (Simulation time: 01 hr 51 min 04 sec)
Heartbeat CPU 0 instructions: 3790000004 cycles: 1080849136 heartbeat IPC: 1.818 cumulative IPC: 3.507 (Simulation time: 01 hr 51 min 34 sec)
Heartbeat CPU 0 instructions: 3800000002 cycles: 1083644893 heartbeat IPC: 3.577 cumulative IPC: 3.507 (Simulation time: 01 hr 51 min 51 sec)
Heartbeat CPU 0 instructions: 3810000003 cycles: 1086402851 heartbeat IPC: 3.626 cumulative IPC: 3.507 (Simulation time: 01 hr 52 min 09 sec)
Heartbeat CPU 0 instructions: 3820000002 cycles: 1089187715 heartbeat IPC: 3.591 cumulative IPC: 3.507 (Simulation time: 01 hr 52 min 26 sec)
Heartbeat CPU 0 instructions: 3830000003 cycles: 1091988927 heartbeat IPC: 3.57 cumulative IPC: 3.507 (Simulation time: 01 hr 52 min 44 sec)
Heartbeat CPU 0 instructions: 3840000003 cycles: 1094800542 heartbeat IPC: 3.557 cumulative IPC: 3.507 (Simulation time: 01 hr 53 min 02 sec)
Heartbeat CPU 0 instructions: 3850000002 cycles: 1097638655 heartbeat IPC: 3.523 cumulative IPC: 3.508 (Simulation time: 01 hr 53 min 21 sec)
Heartbeat CPU 0 instructions: 3860000000 cycles: 1100472915 heartbeat IPC: 3.528 cumulative IPC: 3.508 (Simulation time: 01 hr 53 min 40 sec)
Heartbeat CPU 0 instructions: 3870000003 cycles: 1103302600 heartbeat IPC: 3.534 cumulative IPC: 3.508 (Simulation time: 01 hr 53 min 58 sec)
Heartbeat CPU 0 instructions: 3880000001 cycles: 1106117133 heartbeat IPC: 3.553 cumulative IPC: 3.508 (Simulation time: 01 hr 54 min 16 sec)
Heartbeat CPU 0 instructions: 3890000001 cycles: 1108949517 heartbeat IPC: 3.531 cumulative IPC: 3.508 (Simulation time: 01 hr 54 min 34 sec)
Heartbeat CPU 0 instructions: 3900000004 cycles: 1111786426 heartbeat IPC: 3.525 cumulative IPC: 3.508 (Simulation time: 01 hr 54 min 51 sec)
Heartbeat CPU 0 instructions: 3910000000 cycles: 1114594586 heartbeat IPC: 3.561 cumulative IPC: 3.508 (Simulation time: 01 hr 55 min 09 sec)
Heartbeat CPU 0 instructions: 3920000004 cycles: 1117432910 heartbeat IPC: 3.523 cumulative IPC: 3.508 (Simulation time: 01 hr 55 min 27 sec)
Heartbeat CPU 0 instructions: 3930000002 cycles: 1120211102 heartbeat IPC: 3.599 cumulative IPC: 3.508 (Simulation time: 01 hr 55 min 45 sec)
Heartbeat CPU 0 instructions: 3940000001 cycles: 1122989196 heartbeat IPC: 3.6 cumulative IPC: 3.508 (Simulation time: 01 hr 56 min 02 sec)
Heartbeat CPU 0 instructions: 3950000001 cycles: 1125741224 heartbeat IPC: 3.634 cumulative IPC: 3.509 (Simulation time: 01 hr 56 min 19 sec)
Heartbeat CPU 0 instructions: 3960000002 cycles: 1130641555 heartbeat IPC: 2.041 cumulative IPC: 3.502 (Simulation time: 01 hr 56 min 46 sec)
Heartbeat CPU 0 instructions: 3970000003 cycles: 1134006365 heartbeat IPC: 2.972 cumulative IPC: 3.501 (Simulation time: 01 hr 57 min 06 sec)
Heartbeat CPU 0 instructions: 3980000001 cycles: 1136755568 heartbeat IPC: 3.637 cumulative IPC: 3.501 (Simulation time: 01 hr 57 min 24 sec)
Heartbeat CPU 0 instructions: 3990000002 cycles: 1139527100 heartbeat IPC: 3.608 cumulative IPC: 3.501 (Simulation time: 01 hr 57 min 42 sec)
*** Reached end of trace: (0, "traces/603.bwaves_s-1080B.champsimtrace.xz")
Heartbeat CPU 0 instructions: 4000000000 cycles: 1142344946 heartbeat IPC: 3.549 cumulative IPC: 3.502 (Simulation time: 01 hr 58 min 01 sec)
Heartbeat CPU 0 instructions: 4010000003 cycles: 1146352567 heartbeat IPC: 2.495 cumulative IPC: 3.498 (Simulation time: 01 hr 58 min 25 sec)
Heartbeat CPU 0 instructions: 4020000000 cycles: 1151002956 heartbeat IPC: 2.15 cumulative IPC: 3.493 (Simulation time: 01 hr 58 min 52 sec)
Heartbeat CPU 0 instructions: 4030000004 cycles: 1153703495 heartbeat IPC: 3.703 cumulative IPC: 3.493 (Simulation time: 01 hr 59 min 10 sec)
Heartbeat CPU 0 instructions: 4040000001 cycles: 1156405000 heartbeat IPC: 3.702 cumulative IPC: 3.494 (Simulation time: 01 hr 59 min 28 sec)
Heartbeat CPU 0 instructions: 4050000002 cycles: 1159167261 heartbeat IPC: 3.62 cumulative IPC: 3.494 (Simulation time: 01 hr 59 min 46 sec)
Heartbeat CPU 0 instructions: 4060000001 cycles: 1161893567 heartbeat IPC: 3.668 cumulative IPC: 3.494 (Simulation time: 02 hr 00 min 03 sec)
Heartbeat CPU 0 instructions: 4070000001 cycles: 1164618657 heartbeat IPC: 3.67 cumulative IPC: 3.495 (Simulation time: 02 hr 00 min 20 sec)
Heartbeat CPU 0 instructions: 4080000002 cycles: 1167344382 heartbeat IPC: 3.669 cumulative IPC: 3.495 (Simulation time: 02 hr 00 min 38 sec)
Heartbeat CPU 0 instructions: 4090000002 cycles: 1170093142 heartbeat IPC: 3.638 cumulative IPC: 3.495 (Simulation time: 02 hr 00 min 55 sec)
Heartbeat CPU 0 instructions: 4100000004 cycles: 1172846414 heartbeat IPC: 3.632 cumulative IPC: 3.496 (Simulation time: 02 hr 01 min 13 sec)
Heartbeat CPU 0 instructions: 4110000002 cycles: 1175587383 heartbeat IPC: 3.648 cumulative IPC: 3.496 (Simulation time: 02 hr 01 min 30 sec)
Heartbeat CPU 0 instructions: 4120000004 cycles: 1178302551 heartbeat IPC: 3.683 cumulative IPC: 3.497 (Simulation time: 02 hr 01 min 47 sec)
Heartbeat CPU 0 instructions: 4130000000 cycles: 1181016921 heartbeat IPC: 3.684 cumulative IPC: 3.497 (Simulation time: 02 hr 02 min 04 sec)
Heartbeat CPU 0 instructions: 4140000004 cycles: 1183730928 heartbeat IPC: 3.685 cumulative IPC: 3.497 (Simulation time: 02 hr 02 min 21 sec)
Heartbeat CPU 0 instructions: 4150000001 cycles: 1186477243 heartbeat IPC: 3.641 cumulative IPC: 3.498 (Simulation time: 02 hr 02 min 38 sec)
Heartbeat CPU 0 instructions: 4160000004 cycles: 1189225736 heartbeat IPC: 3.638 cumulative IPC: 3.498 (Simulation time: 02 hr 02 min 55 sec)
Heartbeat CPU 0 instructions: 4170000002 cycles: 1192001220 heartbeat IPC: 3.603 cumulative IPC: 3.498 (Simulation time: 02 hr 03 min 12 sec)
Heartbeat CPU 0 instructions: 4180000000 cycles: 1194751690 heartbeat IPC: 3.636 cumulative IPC: 3.499 (Simulation time: 02 hr 03 min 30 sec)
Heartbeat CPU 0 instructions: 4190000001 cycles: 1197523798 heartbeat IPC: 3.607 cumulative IPC: 3.499 (Simulation time: 02 hr 03 min 47 sec)
Heartbeat CPU 0 instructions: 4200000004 cycles: 1200297127 heartbeat IPC: 3.606 cumulative IPC: 3.499 (Simulation time: 02 hr 04 min 04 sec)
Heartbeat CPU 0 instructions: 4210000000 cycles: 1203049908 heartbeat IPC: 3.633 cumulative IPC: 3.499 (Simulation time: 02 hr 04 min 21 sec)
Heartbeat CPU 0 instructions: 4220000004 cycles: 1205821808 heartbeat IPC: 3.608 cumulative IPC: 3.5 (Simulation time: 02 hr 04 min 39 sec)
Heartbeat CPU 0 instructions: 4230000004 cycles: 1208574658 heartbeat IPC: 3.633 cumulative IPC: 3.5 (Simulation time: 02 hr 04 min 57 sec)
Heartbeat CPU 0 instructions: 4240000000 cycles: 1211348015 heartbeat IPC: 3.606 cumulative IPC: 3.5 (Simulation time: 02 hr 05 min 14 sec)
Heartbeat CPU 0 instructions: 4250000002 cycles: 1214120736 heartbeat IPC: 3.607 cumulative IPC: 3.5 (Simulation time: 02 hr 05 min 31 sec)
Heartbeat CPU 0 instructions: 4260000000 cycles: 1216871278 heartbeat IPC: 3.636 cumulative IPC: 3.501 (Simulation time: 02 hr 05 min 49 sec)
Heartbeat CPU 0 instructions: 4270000003 cycles: 1219647097 heartbeat IPC: 3.603 cumulative IPC: 3.501 (Simulation time: 02 hr 06 min 06 sec)
Heartbeat CPU 0 instructions: 4280000001 cycles: 1222423315 heartbeat IPC: 3.602 cumulative IPC: 3.501 (Simulation time: 02 hr 06 min 23 sec)
Heartbeat CPU 0 instructions: 4290000004 cycles: 1225173443 heartbeat IPC: 3.636 cumulative IPC: 3.502 (Simulation time: 02 hr 06 min 41 sec)
Heartbeat CPU 0 instructions: 4300000004 cycles: 1227946894 heartbeat IPC: 3.606 cumulative IPC: 3.502 (Simulation time: 02 hr 06 min 58 sec)
Heartbeat CPU 0 instructions: 4310000004 cycles: 1230701088 heartbeat IPC: 3.631 cumulative IPC: 3.502 (Simulation time: 02 hr 07 min 15 sec)
Heartbeat CPU 0 instructions: 4320000001 cycles: 1233479363 heartbeat IPC: 3.599 cumulative IPC: 3.502 (Simulation time: 02 hr 07 min 32 sec)
Heartbeat CPU 0 instructions: 4330000004 cycles: 1236225968 heartbeat IPC: 3.641 cumulative IPC: 3.503 (Simulation time: 02 hr 07 min 51 sec)
Heartbeat CPU 0 instructions: 4340000004 cycles: 1238966296 heartbeat IPC: 3.649 cumulative IPC: 3.503 (Simulation time: 02 hr 08 min 08 sec)
Heartbeat CPU 0 instructions: 4350000001 cycles: 1241681562 heartbeat IPC: 3.683 cumulative IPC: 3.503 (Simulation time: 02 hr 08 min 25 sec)
Heartbeat CPU 0 instructions: 4360000000 cycles: 1244395722 heartbeat IPC: 3.684 cumulative IPC: 3.504 (Simulation time: 02 hr 08 min 42 sec)
Heartbeat CPU 0 instructions: 4370000000 cycles: 1247111049 heartbeat IPC: 3.683 cumulative IPC: 3.504 (Simulation time: 02 hr 08 min 59 sec)
Heartbeat CPU 0 instructions: 4380000000 cycles: 1249853794 heartbeat IPC: 3.646 cumulative IPC: 3.504 (Simulation time: 02 hr 09 min 16 sec)
Heartbeat CPU 0 instructions: 4390000001 cycles: 1252631295 heartbeat IPC: 3.6 cumulative IPC: 3.505 (Simulation time: 02 hr 09 min 34 sec)
Heartbeat CPU 0 instructions: 4400000004 cycles: 1255355726 heartbeat IPC: 3.67 cumulative IPC: 3.505 (Simulation time: 02 hr 09 min 51 sec)
Heartbeat CPU 0 instructions: 4410000003 cycles: 1258081903 heartbeat IPC: 3.668 cumulative IPC: 3.505 (Simulation time: 02 hr 10 min 08 sec)
Heartbeat CPU 0 instructions: 4420000004 cycles: 1260807219 heartbeat IPC: 3.669 cumulative IPC: 3.506 (Simulation time: 02 hr 10 min 25 sec)
Heartbeat CPU 0 instructions: 4430000003 cycles: 1263589444 heartbeat IPC: 3.594 cumulative IPC: 3.506 (Simulation time: 02 hr 10 min 42 sec)
Heartbeat CPU 0 instructions: 4440000000 cycles: 1266292343 heartbeat IPC: 3.7 cumulative IPC: 3.506 (Simulation time: 02 hr 10 min 59 sec)
Heartbeat CPU 0 instructions: 4450000000 cycles: 1268992714 heartbeat IPC: 3.703 cumulative IPC: 3.507 (Simulation time: 02 hr 11 min 16 sec)
Heartbeat CPU 0 instructions: 4460000002 cycles: 1271693511 heartbeat IPC: 3.703 cumulative IPC: 3.507 (Simulation time: 02 hr 11 min 33 sec)
Heartbeat CPU 0 instructions: 4470000004 cycles: 1276753383 heartbeat IPC: 1.976 cumulative IPC: 3.501 (Simulation time: 02 hr 12 min 01 sec)
Heartbeat CPU 0 instructions: 4480000004 cycles: 1280153583 heartbeat IPC: 2.941 cumulative IPC: 3.5 (Simulation time: 02 hr 12 min 21 sec)
Heartbeat CPU 0 instructions: 4490000002 cycles: 1282911664 heartbeat IPC: 3.626 cumulative IPC: 3.5 (Simulation time: 02 hr 12 min 38 sec)
Heartbeat CPU 0 instructions: 4500000000 cycles: 1285681821 heartbeat IPC: 3.61 cumulative IPC: 3.5 (Simulation time: 02 hr 12 min 55 sec)
Heartbeat CPU 0 instructions: 4510000002 cycles: 1288431517 heartbeat IPC: 3.637 cumulative IPC: 3.5 (Simulation time: 02 hr 13 min 12 sec)
Heartbeat CPU 0 instructions: 4520000003 cycles: 1291188717 heartbeat IPC: 3.627 cumulative IPC: 3.501 (Simulation time: 02 hr 13 min 29 sec)
Heartbeat CPU 0 instructions: 4530000000 cycles: 1293969894 heartbeat IPC: 3.596 cumulative IPC: 3.501 (Simulation time: 02 hr 13 min 48 sec)
Heartbeat CPU 0 instructions: 4540000002 cycles: 1296761044 heartbeat IPC: 3.583 cumulative IPC: 3.501 (Simulation time: 02 hr 14 min 06 sec)
Heartbeat CPU 0 instructions: 4550000003 cycles: 1299533918 heartbeat IPC: 3.606 cumulative IPC: 3.501 (Simulation time: 02 hr 14 min 24 sec)
Heartbeat CPU 0 instructions: 4560000001 cycles: 1302307807 heartbeat IPC: 3.605 cumulative IPC: 3.501 (Simulation time: 02 hr 14 min 42 sec)
Heartbeat CPU 0 instructions: 4570000000 cycles: 1305083682 heartbeat IPC: 3.602 cumulative IPC: 3.502 (Simulation time: 02 hr 15 min 00 sec)
Heartbeat CPU 0 instructions: 4580000001 cycles: 1307857612 heartbeat IPC: 3.605 cumulative IPC: 3.502 (Simulation time: 02 hr 15 min 18 sec)
Heartbeat CPU 0 instructions: 4590000001 cycles: 1310639583 heartbeat IPC: 3.595 cumulative IPC: 3.502 (Simulation time: 02 hr 15 min 36 sec)
Heartbeat CPU 0 instructions: 4600000003 cycles: 1313419772 heartbeat IPC: 3.597 cumulative IPC: 3.502 (Simulation time: 02 hr 15 min 54 sec)
Heartbeat CPU 0 instructions: 4610000000 cycles: 1316192240 heartbeat IPC: 3.607 cumulative IPC: 3.503 (Simulation time: 02 hr 16 min 12 sec)
Heartbeat CPU 0 instructions: 4620000003 cycles: 1318968774 heartbeat IPC: 3.602 cumulative IPC: 3.503 (Simulation time: 02 hr 16 min 30 sec)
Heartbeat CPU 0 instructions: 4630000003 cycles: 1321741485 heartbeat IPC: 3.607 cumulative IPC: 3.503 (Simulation time: 02 hr 16 min 48 sec)
Heartbeat CPU 0 instructions: 4640000002 cycles: 1324517053 heartbeat IPC: 3.603 cumulative IPC: 3.503 (Simulation time: 02 hr 17 min 06 sec)
Heartbeat CPU 0 instructions: 4650000004 cycles: 1327291258 heartbeat IPC: 3.605 cumulative IPC: 3.503 (Simulation time: 02 hr 17 min 23 sec)
Heartbeat CPU 0 instructions: 4660000004 cycles: 1330040543 heartbeat IPC: 3.637 cumulative IPC: 3.504 (Simulation time: 02 hr 17 min 40 sec)
Heartbeat CPU 0 instructions: 4670000000 cycles: 1332798327 heartbeat IPC: 3.626 cumulative IPC: 3.504 (Simulation time: 02 hr 17 min 58 sec)
Heartbeat CPU 0 instructions: 4680000000 cycles: 1335568249 heartbeat IPC: 3.61 cumulative IPC: 3.504 (Simulation time: 02 hr 18 min 15 sec)
Heartbeat CPU 0 instructions: 4690000000 cycles: 1338289608 heartbeat IPC: 3.675 cumulative IPC: 3.504 (Simulation time: 02 hr 18 min 33 sec)
Heartbeat CPU 0 instructions: 4700000001 cycles: 1341010476 heartbeat IPC: 3.675 cumulative IPC: 3.505 (Simulation time: 02 hr 18 min 50 sec)
Heartbeat CPU 0 instructions: 4710000002 cycles: 1343731479 heartbeat IPC: 3.675 cumulative IPC: 3.505 (Simulation time: 02 hr 19 min 07 sec)
Heartbeat CPU 0 instructions: 4720000000 cycles: 1346538292 heartbeat IPC: 3.563 cumulative IPC: 3.505 (Simulation time: 02 hr 19 min 24 sec)
Heartbeat CPU 0 instructions: 4730000000 cycles: 1351962126 heartbeat IPC: 1.844 cumulative IPC: 3.499 (Simulation time: 02 hr 19 min 53 sec)
Heartbeat CPU 0 instructions: 4740000000 cycles: 1354961555 heartbeat IPC: 3.334 cumulative IPC: 3.498 (Simulation time: 02 hr 20 min 12 sec)
Heartbeat CPU 0 instructions: 4750000001 cycles: 1357675908 heartbeat IPC: 3.684 cumulative IPC: 3.499 (Simulation time: 02 hr 20 min 29 sec)
Heartbeat CPU 0 instructions: 4760000000 cycles: 1360391748 heartbeat IPC: 3.682 cumulative IPC: 3.499 (Simulation time: 02 hr 20 min 46 sec)
Heartbeat CPU 0 instructions: 4770000000 cycles: 1363106547 heartbeat IPC: 3.684 cumulative IPC: 3.499 (Simulation time: 02 hr 21 min 03 sec)
Heartbeat CPU 0 instructions: 4780000001 cycles: 1365851114 heartbeat IPC: 3.644 cumulative IPC: 3.5 (Simulation time: 02 hr 21 min 20 sec)
Heartbeat CPU 0 instructions: 4790000000 cycles: 1368601350 heartbeat IPC: 3.636 cumulative IPC: 3.5 (Simulation time: 02 hr 21 min 37 sec)
Heartbeat CPU 0 instructions: 4800000004 cycles: 1371405731 heartbeat IPC: 3.566 cumulative IPC: 3.5 (Simulation time: 02 hr 21 min 55 sec)
Heartbeat CPU 0 instructions: 4810000003 cycles: 1374188971 heartbeat IPC: 3.593 cumulative IPC: 3.5 (Simulation time: 02 hr 22 min 12 sec)
Heartbeat CPU 0 instructions: 4820000000 cycles: 1376967872 heartbeat IPC: 3.599 cumulative IPC: 3.5 (Simulation time: 02 hr 22 min 30 sec)
Heartbeat CPU 0 instructions: 4830000002 cycles: 1379741957 heartbeat IPC: 3.605 cumulative IPC: 3.501 (Simulation time: 02 hr 22 min 47 sec)
Heartbeat CPU 0 instructions: 4840000000 cycles: 1382516319 heartbeat IPC: 3.604 cumulative IPC: 3.501 (Simulation time: 02 hr 23 min 05 sec)
Heartbeat CPU 0 instructions: 4850000002 cycles: 1385292271 heartbeat IPC: 3.602 cumulative IPC: 3.501 (Simulation time: 02 hr 23 min 22 sec)
Heartbeat CPU 0 instructions: 4860000001 cycles: 1388069750 heartbeat IPC: 3.6 cumulative IPC: 3.501 (Simulation time: 02 hr 23 min 40 sec)
Heartbeat CPU 0 instructions: 4870000002 cycles: 1390850110 heartbeat IPC: 3.597 cumulative IPC: 3.501 (Simulation time: 02 hr 23 min 57 sec)
Heartbeat CPU 0 instructions: 4880000001 cycles: 1393625223 heartbeat IPC: 3.603 cumulative IPC: 3.502 (Simulation time: 02 hr 24 min 14 sec)
Heartbeat CPU 0 instructions: 4890000000 cycles: 1396406770 heartbeat IPC: 3.595 cumulative IPC: 3.502 (Simulation time: 02 hr 24 min 32 sec)
Heartbeat CPU 0 instructions: 4900000003 cycles: 1399180936 heartbeat IPC: 3.605 cumulative IPC: 3.502 (Simulation time: 02 hr 24 min 49 sec)
Heartbeat CPU 0 instructions: 4910000000 cycles: 1401954741 heartbeat IPC: 3.605 cumulative IPC: 3.502 (Simulation time: 02 hr 25 min 06 sec)
Heartbeat CPU 0 instructions: 4920000003 cycles: 1404730040 heartbeat IPC: 3.603 cumulative IPC: 3.502 (Simulation time: 02 hr 25 min 24 sec)
Heartbeat CPU 0 instructions: 4930000000 cycles: 1407504314 heartbeat IPC: 3.605 cumulative IPC: 3.503 (Simulation time: 02 hr 25 min 41 sec)
Heartbeat CPU 0 instructions: 4940000000 cycles: 1410300630 heartbeat IPC: 3.576 cumulative IPC: 3.503 (Simulation time: 02 hr 25 min 59 sec)
Heartbeat CPU 0 instructions: 4950000000 cycles: 1413081917 heartbeat IPC: 3.595 cumulative IPC: 3.503 (Simulation time: 02 hr 26 min 16 sec)
Heartbeat CPU 0 instructions: 4960000003 cycles: 1415828127 heartbeat IPC: 3.641 cumulative IPC: 3.503 (Simulation time: 02 hr 26 min 33 sec)
Heartbeat CPU 0 instructions: 4970000001 cycles: 1418567370 heartbeat IPC: 3.651 cumulative IPC: 3.504 (Simulation time: 02 hr 26 min 50 sec)
Heartbeat CPU 0 instructions: 4980000001 cycles: 1421282825 heartbeat IPC: 3.683 cumulative IPC: 3.504 (Simulation time: 02 hr 27 min 07 sec)
Heartbeat CPU 0 instructions: 4990000000 cycles: 1423997673 heartbeat IPC: 3.683 cumulative IPC: 3.504 (Simulation time: 02 hr 27 min 24 sec)
Heartbeat CPU 0 instructions: 5000000000 cycles: 1426713106 heartbeat IPC: 3.683 cumulative IPC: 3.505 (Simulation time: 02 hr 27 min 41 sec)
Heartbeat CPU 0 instructions: 5010000003 cycles: 1430324760 heartbeat IPC: 2.769 cumulative IPC: 3.503 (Simulation time: 02 hr 28 min 02 sec)
Heartbeat CPU 0 instructions: 5020000004 cycles: 1435043497 heartbeat IPC: 2.119 cumulative IPC: 3.498 (Simulation time: 02 hr 28 min 28 sec)
Heartbeat CPU 0 instructions: 5030000000 cycles: 1437746454 heartbeat IPC: 3.7 cumulative IPC: 3.499 (Simulation time: 02 hr 28 min 45 sec)
Heartbeat CPU 0 instructions: 5040000001 cycles: 1440448198 heartbeat IPC: 3.701 cumulative IPC: 3.499 (Simulation time: 02 hr 29 min 02 sec)
Heartbeat CPU 0 instructions: 5050000003 cycles: 1443148944 heartbeat IPC: 3.703 cumulative IPC: 3.499 (Simulation time: 02 hr 29 min 19 sec)
Heartbeat CPU 0 instructions: 5060000001 cycles: 1445957553 heartbeat IPC: 3.56 cumulative IPC: 3.499 (Simulation time: 02 hr 29 min 36 sec)
Heartbeat CPU 0 instructions: 5070000000 cycles: 1448741862 heartbeat IPC: 3.592 cumulative IPC: 3.5 (Simulation time: 02 hr 29 min 54 sec)
Heartbeat CPU 0 instructions: 5080000002 cycles: 1451519032 heartbeat IPC: 3.601 cumulative IPC: 3.5 (Simulation time: 02 hr 30 min 11 sec)
Heartbeat CPU 0 instructions: 5090000003 cycles: 1454306627 heartbeat IPC: 3.587 cumulative IPC: 3.5 (Simulation time: 02 hr 30 min 29 sec)
Heartbeat CPU 0 instructions: 5100000004 cycles: 1457082939 heartbeat IPC: 3.602 cumulative IPC: 3.5 (Simulation time: 02 hr 30 min 46 sec)
Heartbeat CPU 0 instructions: 5110000001 cycles: 1459845391 heartbeat IPC: 3.62 cumulative IPC: 3.5 (Simulation time: 02 hr 31 min 04 sec)
Heartbeat CPU 0 instructions: 5120000001 cycles: 1462616694 heartbeat IPC: 3.608 cumulative IPC: 3.501 (Simulation time: 02 hr 31 min 21 sec)
Heartbeat CPU 0 instructions: 5130000000 cycles: 1465385944 heartbeat IPC: 3.611 cumulative IPC: 3.501 (Simulation time: 02 hr 31 min 38 sec)
Heartbeat CPU 0 instructions: 5140000001 cycles: 1468140431 heartbeat IPC: 3.63 cumulative IPC: 3.501 (Simulation time: 02 hr 31 min 56 sec)
Heartbeat CPU 0 instructions: 5150000003 cycles: 1470918357 heartbeat IPC: 3.6 cumulative IPC: 3.501 (Simulation time: 02 hr 32 min 13 sec)
Heartbeat CPU 0 instructions: 5160000003 cycles: 1473683610 heartbeat IPC: 3.616 cumulative IPC: 3.501 (Simulation time: 02 hr 32 min 30 sec)
Heartbeat CPU 0 instructions: 5170000000 cycles: 1476462611 heartbeat IPC: 3.598 cumulative IPC: 3.502 (Simulation time: 02 hr 32 min 48 sec)
Heartbeat CPU 0 instructions: 5180000003 cycles: 1479220790 heartbeat IPC: 3.626 cumulative IPC: 3.502 (Simulation time: 02 hr 33 min 05 sec)
Heartbeat CPU 0 instructions: 5190000002 cycles: 1481996975 heartbeat IPC: 3.602 cumulative IPC: 3.502 (Simulation time: 02 hr 33 min 22 sec)
Heartbeat CPU 0 instructions: 5200000004 cycles: 1484759729 heartbeat IPC: 3.62 cumulative IPC: 3.502 (Simulation time: 02 hr 33 min 39 sec)
Heartbeat CPU 0 instructions: 5210000004 cycles: 1487509506 heartbeat IPC: 3.637 cumulative IPC: 3.502 (Simulation time: 02 hr 33 min 56 sec)
Heartbeat CPU 0 instructions: 5220000003 cycles: 1490281434 heartbeat IPC: 3.608 cumulative IPC: 3.503 (Simulation time: 02 hr 34 min 14 sec)
Heartbeat CPU 0 instructions: 5230000001 cycles: 1493040762 heartbeat IPC: 3.624 cumulative IPC: 3.503 (Simulation time: 02 hr 34 min 31 sec)
Heartbeat CPU 0 instructions: 5240000002 cycles: 1495813753 heartbeat IPC: 3.606 cumulative IPC: 3.503 (Simulation time: 02 hr 34 min 48 sec)
Heartbeat CPU 0 instructions: 5250000002 cycles: 1498576443 heartbeat IPC: 3.62 cumulative IPC: 3.503 (Simulation time: 02 hr 35 min 06 sec)
Heartbeat CPU 0 instructions: 5260000004 cycles: 1501337637 heartbeat IPC: 3.622 cumulative IPC: 3.504 (Simulation time: 02 hr 35 min 23 sec)
Heartbeat CPU 0 instructions: 5270000000 cycles: 1504108115 heartbeat IPC: 3.609 cumulative IPC: 3.504 (Simulation time: 02 hr 35 min 40 sec)
Heartbeat CPU 0 instructions: 5280000001 cycles: 1506876876 heartbeat IPC: 3.612 cumulative IPC: 3.504 (Simulation time: 02 hr 35 min 58 sec)
Heartbeat CPU 0 instructions: 5290000000 cycles: 1509677186 heartbeat IPC: 3.571 cumulative IPC: 3.504 (Simulation time: 02 hr 36 min 15 sec)
Heartbeat CPU 0 instructions: 5300000002 cycles: 1512462470 heartbeat IPC: 3.59 cumulative IPC: 3.504 (Simulation time: 02 hr 36 min 33 sec)
Heartbeat CPU 0 instructions: 5310000002 cycles: 1515229116 heartbeat IPC: 3.614 cumulative IPC: 3.504 (Simulation time: 02 hr 36 min 50 sec)
Heartbeat CPU 0 instructions: 5320000001 cycles: 1518038720 heartbeat IPC: 3.559 cumulative IPC: 3.505 (Simulation time: 02 hr 37 min 07 sec)
Heartbeat CPU 0 instructions: 5330000001 cycles: 1520743162 heartbeat IPC: 3.698 cumulative IPC: 3.505 (Simulation time: 02 hr 37 min 25 sec)
Heartbeat CPU 0 instructions: 5340000002 cycles: 1523444422 heartbeat IPC: 3.702 cumulative IPC: 3.505 (Simulation time: 02 hr 37 min 41 sec)
Heartbeat CPU 0 instructions: 5350000000 cycles: 1526147233 heartbeat IPC: 3.7 cumulative IPC: 3.506 (Simulation time: 02 hr 37 min 59 sec)
Heartbeat CPU 0 instructions: 5360000002 cycles: 1530131664 heartbeat IPC: 2.51 cumulative IPC: 3.503 (Simulation time: 02 hr 38 min 21 sec)
Heartbeat CPU 0 instructions: 5370000002 cycles: 1534383910 heartbeat IPC: 2.352 cumulative IPC: 3.5 (Simulation time: 02 hr 38 min 45 sec)
Heartbeat CPU 0 instructions: 5380000001 cycles: 1537105509 heartbeat IPC: 3.674 cumulative IPC: 3.5 (Simulation time: 02 hr 39 min 02 sec)
Heartbeat CPU 0 instructions: 5390000000 cycles: 1539826214 heartbeat IPC: 3.676 cumulative IPC: 3.5 (Simulation time: 02 hr 39 min 19 sec)
Heartbeat CPU 0 instructions: 5400000002 cycles: 1542548406 heartbeat IPC: 3.674 cumulative IPC: 3.501 (Simulation time: 02 hr 39 min 36 sec)
Heartbeat CPU 0 instructions: 5410000002 cycles: 1545294198 heartbeat IPC: 3.642 cumulative IPC: 3.501 (Simulation time: 02 hr 39 min 54 sec)
Heartbeat CPU 0 instructions: 5420000000 cycles: 1548010569 heartbeat IPC: 3.681 cumulative IPC: 3.501 (Simulation time: 02 hr 40 min 11 sec)
Heartbeat CPU 0 instructions: 5430000003 cycles: 1550727309 heartbeat IPC: 3.681 cumulative IPC: 3.502 (Simulation time: 02 hr 40 min 28 sec)
Heartbeat CPU 0 instructions: 5440000003 cycles: 1553442854 heartbeat IPC: 3.683 cumulative IPC: 3.502 (Simulation time: 02 hr 40 min 45 sec)
Heartbeat CPU 0 instructions: 5450000000 cycles: 1556214941 heartbeat IPC: 3.607 cumulative IPC: 3.502 (Simulation time: 02 hr 41 min 03 sec)
Heartbeat CPU 0 instructions: 5460000001 cycles: 1558948730 heartbeat IPC: 3.658 cumulative IPC: 3.502 (Simulation time: 02 hr 41 min 20 sec)
Heartbeat CPU 0 instructions: 5470000001 cycles: 1561732036 heartbeat IPC: 3.593 cumulative IPC: 3.503 (Simulation time: 02 hr 41 min 38 sec)
Heartbeat CPU 0 instructions: 5480000003 cycles: 1564552404 heartbeat IPC: 3.546 cumulative IPC: 3.503 (Simulation time: 02 hr 41 min 55 sec)
Heartbeat CPU 0 instructions: 5490000003 cycles: 1567302676 heartbeat IPC: 3.636 cumulative IPC: 3.503 (Simulation time: 02 hr 42 min 13 sec)
Heartbeat CPU 0 instructions: 5500000000 cycles: 1570060633 heartbeat IPC: 3.626 cumulative IPC: 3.503 (Simulation time: 02 hr 42 min 30 sec)
Heartbeat CPU 0 instructions: 5510000003 cycles: 1572832513 heartbeat IPC: 3.608 cumulative IPC: 3.503 (Simulation time: 02 hr 42 min 47 sec)
Heartbeat CPU 0 instructions: 5520000000 cycles: 1575589556 heartbeat IPC: 3.627 cumulative IPC: 3.503 (Simulation time: 02 hr 43 min 05 sec)
Heartbeat CPU 0 instructions: 5530000000 cycles: 1578363365 heartbeat IPC: 3.605 cumulative IPC: 3.504 (Simulation time: 02 hr 43 min 22 sec)
Heartbeat CPU 0 instructions: 5540000004 cycles: 1581119150 heartbeat IPC: 3.629 cumulative IPC: 3.504 (Simulation time: 02 hr 43 min 39 sec)
Heartbeat CPU 0 instructions: 5550000001 cycles: 1583895076 heartbeat IPC: 3.602 cumulative IPC: 3.504 (Simulation time: 02 hr 43 min 56 sec)
Heartbeat CPU 0 instructions: 5560000000 cycles: 1586647482 heartbeat IPC: 3.633 cumulative IPC: 3.504 (Simulation time: 02 hr 44 min 14 sec)
Heartbeat CPU 0 instructions: 5570000002 cycles: 1589424661 heartbeat IPC: 3.601 cumulative IPC: 3.504 (Simulation time: 02 hr 44 min 31 sec)
Heartbeat CPU 0 instructions: 5580000001 cycles: 1592177108 heartbeat IPC: 3.633 cumulative IPC: 3.505 (Simulation time: 02 hr 44 min 48 sec)
Heartbeat CPU 0 instructions: 5590000000 cycles: 1594952586 heartbeat IPC: 3.603 cumulative IPC: 3.505 (Simulation time: 02 hr 45 min 06 sec)
Heartbeat CPU 0 instructions: 5600000001 cycles: 1597704570 heartbeat IPC: 3.634 cumulative IPC: 3.505 (Simulation time: 02 hr 45 min 23 sec)
Heartbeat CPU 0 instructions: 5610000000 cycles: 1600482293 heartbeat IPC: 3.6 cumulative IPC: 3.505 (Simulation time: 02 hr 45 min 40 sec)
Heartbeat CPU 0 instructions: 5620000003 cycles: 1603231967 heartbeat IPC: 3.637 cumulative IPC: 3.505 (Simulation time: 02 hr 45 min 58 sec)
Heartbeat CPU 0 instructions: 5630000003 cycles: 1606012100 heartbeat IPC: 3.597 cumulative IPC: 3.506 (Simulation time: 02 hr 46 min 15 sec)
[...]
Heartbeat CPU 0 instructions: 8960000001 cycles: 2559461210 heartbeat IPC: 3.634 cumulative IPC: 3.501 (Simulation time: 04 hr 30 min 52 sec)
Heartbeat CPU 0 instructions: 8970000001 cycles: 2562201386 heartbeat IPC: 3.649 cumulative IPC: 3.501 (Simulation time: 04 hr 31 min 10 sec)
Heartbeat CPU 0 instructions: 8980000004 cycles: 2564917067 heartbeat IPC: 3.682 cumulative IPC: 3.501 (Simulation time: 04 hr 31 min 29 sec)
Heartbeat CPU 0 instructions: 8990000000 cycles: 2567631683 heartbeat IPC: 3.684 cumulative IPC: 3.501 (Simulation time: 04 hr 31 min 47 sec)
Heartbeat CPU 0 instructions: 9000000000 cycles: 2570345520 heartbeat IPC: 3.685 cumulative IPC: 3.501 (Simulation time: 04 hr 32 min 06 sec)
Heartbeat CPU 0 instructions: 9010000001 cycles: 2573953223 heartbeat IPC: 2.772 cumulative IPC: 3.5 (Simulation time: 04 hr 32 min 29 sec)
Heartbeat CPU 0 instructions: 9020000002 cycles: 2578672386 heartbeat IPC: 2.119 cumulative IPC: 3.498 (Simulation time: 04 hr 32 min 57 sec)
Heartbeat CPU 0 instructions: 9030000002 cycles: 2581373930 heartbeat IPC: 3.702 cumulative IPC: 3.498 (Simulation time: 04 hr 33 min 16 sec)
Heartbeat CPU 0 instructions: 9040000004 cycles: 2584074165 heartbeat IPC: 3.703 cumulative IPC: 3.498 (Simulation time: 04 hr 33 min 34 sec)
Heartbeat CPU 0 instructions: 9050000001 cycles: 2586773535 heartbeat IPC: 3.705 cumulative IPC: 3.499 (Simulation time: 04 hr 33 min 53 sec)
Heartbeat CPU 0 instructions: 9060000003 cycles: 2589580257 heartbeat IPC: 3.563 cumulative IPC: 3.499 (Simulation time: 04 hr 34 min 11 sec)
Heartbeat CPU 0 instructions: 9070000003 cycles: 2592361220 heartbeat IPC: 3.596 cumulative IPC: 3.499 (Simulation time: 04 hr 34 min 30 sec)
Heartbeat CPU 0 instructions: 9080000000 cycles: 2595130770 heartbeat IPC: 3.611 cumulative IPC: 3.499 (Simulation time: 04 hr 34 min 49 sec)
Heartbeat CPU 0 instructions: 9090000001 cycles: 2597911495 heartbeat IPC: 3.596 cumulative IPC: 3.499 (Simulation time: 04 hr 35 min 09 sec)
Heartbeat CPU 0 instructions: 9100000002 cycles: 2600682452 heartbeat IPC: 3.609 cumulative IPC: 3.499 (Simulation time: 04 hr 35 min 28 sec)
Heartbeat CPU 0 instructions: 9110000004 cycles: 2603442947 heartbeat IPC: 3.623 cumulative IPC: 3.499 (Simulation time: 04 hr 35 min 46 sec)
Heartbeat CPU 0 instructions: 9120000004 cycles: 2606211579 heartbeat IPC: 3.612 cumulative IPC: 3.499 (Simulation time: 04 hr 36 min 05 sec)
Heartbeat CPU 0 instructions: 9130000002 cycles: 2608970912 heartbeat IPC: 3.624 cumulative IPC: 3.499 (Simulation time: 04 hr 36 min 24 sec)
Heartbeat CPU 0 instructions: 9140000004 cycles: 2611721261 heartbeat IPC: 3.636 cumulative IPC: 3.5 (Simulation time: 04 hr 36 min 43 sec)
Heartbeat CPU 0 instructions: 9150000001 cycles: 2614493932 heartbeat IPC: 3.607 cumulative IPC: 3.5 (Simulation time: 04 hr 37 min 02 sec)
Heartbeat CPU 0 instructions: 9160000001 cycles: 2617252843 heartbeat IPC: 3.625 cumulative IPC: 3.5 (Simulation time: 04 hr 37 min 21 sec)
Heartbeat CPU 0 instructions: 9170000001 cycles: 2620026810 heartbeat IPC: 3.605 cumulative IPC: 3.5 (Simulation time: 04 hr 37 min 39 sec)
Heartbeat CPU 0 instructions: 9180000001 cycles: 2622777869 heartbeat IPC: 3.635 cumulative IPC: 3.5 (Simulation time: 04 hr 37 min 58 sec)
Heartbeat CPU 0 instructions: 9190000000 cycles: 2625549921 heartbeat IPC: 3.607 cumulative IPC: 3.5 (Simulation time: 04 hr 38 min 17 sec)
Heartbeat CPU 0 instructions: 9200000002 cycles: 2628309775 heartbeat IPC: 3.623 cumulative IPC: 3.5 (Simulation time: 04 hr 38 min 36 sec)
Heartbeat CPU 0 instructions: 9210000002 cycles: 2631057264 heartbeat IPC: 3.64 cumulative IPC: 3.5 (Simulation time: 04 hr 38 min 54 sec)
Heartbeat CPU 0 instructions: 9220000001 cycles: 2633826861 heartbeat IPC: 3.611 cumulative IPC: 3.501 (Simulation time: 04 hr 39 min 13 sec)
Heartbeat CPU 0 instructions: 9230000004 cycles: 2636582353 heartbeat IPC: 3.629 cumulative IPC: 3.501 (Simulation time: 04 hr 39 min 32 sec)
Heartbeat CPU 0 instructions: 9240000000 cycles: 2639352214 heartbeat IPC: 3.61 cumulative IPC: 3.501 (Simulation time: 04 hr 39 min 50 sec)
Heartbeat CPU 0 instructions: 9250000002 cycles: 2642108030 heartbeat IPC: 3.629 cumulative IPC: 3.501 (Simulation time: 04 hr 40 min 09 sec)
Heartbeat CPU 0 instructions: 9260000002 cycles: 2644866936 heartbeat IPC: 3.625 cumulative IPC: 3.501 (Simulation time: 04 hr 40 min 28 sec)
Heartbeat CPU 0 instructions: 9270000001 cycles: 2647635157 heartbeat IPC: 3.612 cumulative IPC: 3.501 (Simulation time: 04 hr 40 min 47 sec)
Heartbeat CPU 0 instructions: 9280000003 cycles: 2650397580 heartbeat IPC: 3.62 cumulative IPC: 3.501 (Simulation time: 04 hr 41 min 05 sec)
Heartbeat CPU 0 instructions: 9290000003 cycles: 2653193414 heartbeat IPC: 3.577 cumulative IPC: 3.501 (Simulation time: 04 hr 41 min 24 sec)
Heartbeat CPU 0 instructions: 9300000000 cycles: 2655973024 heartbeat IPC: 3.598 cumulative IPC: 3.502 (Simulation time: 04 hr 41 min 43 sec)
Heartbeat CPU 0 instructions: 9310000000 cycles: 2658739012 heartbeat IPC: 3.615 cumulative IPC: 3.502 (Simulation time: 04 hr 42 min 02 sec)
Heartbeat CPU 0 instructions: 9320000004 cycles: 2661551696 heartbeat IPC: 3.555 cumulative IPC: 3.502 (Simulation time: 04 hr 42 min 21 sec)
Heartbeat CPU 0 instructions: 9330000001 cycles: 2664254432 heartbeat IPC: 3.7 cumulative IPC: 3.502 (Simulation time: 04 hr 42 min 39 sec)
Heartbeat CPU 0 instructions: 9340000000 cycles: 2666954218 heartbeat IPC: 3.704 cumulative IPC: 3.502 (Simulation time: 04 hr 42 min 58 sec)
Heartbeat CPU 0 instructions: 9350000003 cycles: 2669654728 heartbeat IPC: 3.703 cumulative IPC: 3.502 (Simulation time: 04 hr 43 min 16 sec)
Heartbeat CPU 0 instructions: 9360000000 cycles: 2673630064 heartbeat IPC: 2.516 cumulative IPC: 3.501 (Simulation time: 04 hr 43 min 41 sec)
Heartbeat CPU 0 instructions: 9370000000 cycles: 2677883980 heartbeat IPC: 2.351 cumulative IPC: 3.499 (Simulation time: 04 hr 44 min 06 sec)
Heartbeat CPU 0 instructions: 9380000002 cycles: 2680604279 heartbeat IPC: 3.676 cumulative IPC: 3.499 (Simulation time: 04 hr 44 min 25 sec)
Heartbeat CPU 0 instructions: 9390000003 cycles: 2683324382 heartbeat IPC: 3.676 cumulative IPC: 3.499 (Simulation time: 04 hr 44 min 44 sec)
Heartbeat CPU 0 instructions: 9400000000 cycles: 2686045144 heartbeat IPC: 3.675 cumulative IPC: 3.5 (Simulation time: 04 hr 45 min 02 sec)
Heartbeat CPU 0 instructions: 9410000000 cycles: 2688788777 heartbeat IPC: 3.645 cumulative IPC: 3.5 (Simulation time: 04 hr 45 min 21 sec)
Heartbeat CPU 0 instructions: 9420000003 cycles: 2691503625 heartbeat IPC: 3.683 cumulative IPC: 3.5 (Simulation time: 04 hr 45 min 39 sec)
Heartbeat CPU 0 instructions: 9430000001 cycles: 2694218998 heartbeat IPC: 3.683 cumulative IPC: 3.5 (Simulation time: 04 hr 45 min 57 sec)
Heartbeat CPU 0 instructions: 9440000001 cycles: 2696932912 heartbeat IPC: 3.685 cumulative IPC: 3.5 (Simulation time: 04 hr 46 min 16 sec)
Heartbeat CPU 0 instructions: 9450000003 cycles: 2699700560 heartbeat IPC: 3.613 cumulative IPC: 3.5 (Simulation time: 04 hr 46 min 35 sec)
Heartbeat CPU 0 instructions: 9460000004 cycles: 2702427746 heartbeat IPC: 3.667 cumulative IPC: 3.501 (Simulation time: 04 hr 46 min 54 sec)
Heartbeat CPU 0 instructions: 9470000002 cycles: 2705205382 heartbeat IPC: 3.6 cumulative IPC: 3.501 (Simulation time: 04 hr 47 min 13 sec)
Heartbeat CPU 0 instructions: 9480000001 cycles: 2708018307 heartbeat IPC: 3.555 cumulative IPC: 3.501 (Simulation time: 04 hr 47 min 32 sec)
Heartbeat CPU 0 instructions: 9490000001 cycles: 2710768610 heartbeat IPC: 3.636 cumulative IPC: 3.501 (Simulation time: 04 hr 47 min 51 sec)
Heartbeat CPU 0 instructions: 9500000002 cycles: 2713524972 heartbeat IPC: 3.628 cumulative IPC: 3.501 (Simulation time: 04 hr 48 min 10 sec)
Heartbeat CPU 0 instructions: 9510000001 cycles: 2716295739 heartbeat IPC: 3.609 cumulative IPC: 3.501 (Simulation time: 04 hr 48 min 29 sec)
Heartbeat CPU 0 instructions: 9520000000 cycles: 2719052030 heartbeat IPC: 3.628 cumulative IPC: 3.501 (Simulation time: 04 hr 48 min 47 sec)
Heartbeat CPU 0 instructions: 9530000003 cycles: 2721825599 heartbeat IPC: 3.605 cumulative IPC: 3.501 (Simulation time: 04 hr 49 min 06 sec)
Heartbeat CPU 0 instructions: 9540000002 cycles: 2724579806 heartbeat IPC: 3.631 cumulative IPC: 3.501 (Simulation time: 04 hr 49 min 25 sec)
Heartbeat CPU 0 instructions: 9550000004 cycles: 2727354557 heartbeat IPC: 3.604 cumulative IPC: 3.502 (Simulation time: 04 hr 49 min 44 sec)
Heartbeat CPU 0 instructions: 9560000000 cycles: 2730105836 heartbeat IPC: 3.635 cumulative IPC: 3.502 (Simulation time: 04 hr 50 min 02 sec)
Heartbeat CPU 0 instructions: 9570000000 cycles: 2732880248 heartbeat IPC: 3.604 cumulative IPC: 3.502 (Simulation time: 04 hr 50 min 21 sec)
Heartbeat CPU 0 instructions: 9580000004 cycles: 2735630137 heartbeat IPC: 3.637 cumulative IPC: 3.502 (Simulation time: 04 hr 50 min 39 sec)
Heartbeat CPU 0 instructions: 9590000000 cycles: 2738403269 heartbeat IPC: 3.606 cumulative IPC: 3.502 (Simulation time: 04 hr 50 min 58 sec)
Heartbeat CPU 0 instructions: 9600000004 cycles: 2741152508 heartbeat IPC: 3.637 cumulative IPC: 3.502 (Simulation time: 04 hr 51 min 17 sec)
Heartbeat CPU 0 instructions: 9610000000 cycles: 2743926642 heartbeat IPC: 3.605 cumulative IPC: 3.502 (Simulation time: 04 hr 51 min 35 sec)
Heartbeat CPU 0 instructions: 9620000001 cycles: 2746674178 heartbeat IPC: 3.64 cumulative IPC: 3.502 (Simulation time: 04 hr 51 min 54 sec)
Heartbeat CPU 0 instructions: 9630000001 cycles: 2749451460 heartbeat IPC: 3.601 cumulative IPC: 3.503 (Simulation time: 04 hr 52 min 13 sec)
Heartbeat CPU 0 instructions: 9640000003 cycles: 2752200992 heartbeat IPC: 3.637 cumulative IPC: 3.503 (Simulation time: 04 hr 52 min 31 sec)
Heartbeat CPU 0 instructions: 9650000004 cycles: 2754981791 heartbeat IPC: 3.596 cumulative IPC: 3.503 (Simulation time: 04 hr 52 min 50 sec)
Heartbeat CPU 0 instructions: 9660000004 cycles: 2757733349 heartbeat IPC: 3.634 cumulative IPC: 3.503 (Simulation time: 04 hr 53 min 09 sec)
Heartbeat CPU 0 instructions: 9670000002 cycles: 2760494197 heartbeat IPC: 3.622 cumulative IPC: 3.503 (Simulation time: 04 hr 53 min 28 sec)
Heartbeat CPU 0 instructions: 9680000001 cycles: 2763264305 heartbeat IPC: 3.61 cumulative IPC: 3.503 (Simulation time: 04 hr 53 min 47 sec)
Heartbeat CPU 0 instructions: 9690000001 cycles: 2766079412 heartbeat IPC: 3.552 cumulative IPC: 3.503 (Simulation time: 04 hr 54 min 07 sec)
Heartbeat CPU 0 instructions: 9700000001 cycles: 2768827995 heartbeat IPC: 3.638 cumulative IPC: 3.503 (Simulation time: 04 hr 54 min 26 sec)
Heartbeat CPU 0 instructions: 9710000002 cycles: 2771576037 heartbeat IPC: 3.639 cumulative IPC: 3.503 (Simulation time: 04 hr 54 min 44 sec)
Heartbeat CPU 0 instructions: 9720000001 cycles: 2774314955 heartbeat IPC: 3.651 cumulative IPC: 3.504 (Simulation time: 04 hr 55 min 03 sec)
Heartbeat CPU 0 instructions: 9730000001 cycles: 2777029635 heartbeat IPC: 3.684 cumulative IPC: 3.504 (Simulation time: 04 hr 55 min 21 sec)
Heartbeat CPU 0 instructions: 9740000003 cycles: 2779744309 heartbeat IPC: 3.684 cumulative IPC: 3.504 (Simulation time: 04 hr 55 min 39 sec)
Heartbeat CPU 0 instructions: 9750000003 cycles: 2782486498 heartbeat IPC: 3.647 cumulative IPC: 3.504 (Simulation time: 04 hr 55 min 58 sec)
Heartbeat CPU 0 instructions: 9760000000 cycles: 2785207184 heartbeat IPC: 3.676 cumulative IPC: 3.504 (Simulation time: 04 hr 56 min 16 sec)
Heartbeat CPU 0 instructions: 9770000000 cycles: 2787928363 heartbeat IPC: 3.675 cumulative IPC: 3.504 (Simulation time: 04 hr 56 min 35 sec)
Heartbeat CPU 0 instructions: 9780000003 cycles: 2790649173 heartbeat IPC: 3.675 cumulative IPC: 3.505 (Simulation time: 04 hr 56 min 53 sec)
Heartbeat CPU 0 instructions: 9790000001 cycles: 2796166859 heartbeat IPC: 1.812 cumulative IPC: 3.501 (Simulation time: 04 hr 57 min 25 sec)
Heartbeat CPU 0 instructions: 9800000004 cycles: 2798962897 heartbeat IPC: 3.576 cumulative IPC: 3.501 (Simulation time: 04 hr 57 min 45 sec)
Heartbeat CPU 0 instructions: 9810000000 cycles: 2801721348 heartbeat IPC: 3.625 cumulative IPC: 3.501 (Simulation time: 04 hr 58 min 05 sec)
Heartbeat CPU 0 instructions: 9820000002 cycles: 2804506321 heartbeat IPC: 3.591 cumulative IPC: 3.502 (Simulation time: 04 hr 58 min 25 sec)
Heartbeat CPU 0 instructions: 9830000000 cycles: 2807306186 heartbeat IPC: 3.572 cumulative IPC: 3.502 (Simulation time: 04 hr 58 min 45 sec)
Heartbeat CPU 0 instructions: 9840000000 cycles: 2810113427 heartbeat IPC: 3.562 cumulative IPC: 3.502 (Simulation time: 04 hr 59 min 06 sec)
Heartbeat CPU 0 instructions: 9850000003 cycles: 2812948320 heartbeat IPC: 3.527 cumulative IPC: 3.502 (Simulation time: 04 hr 59 min 26 sec)
Heartbeat CPU 0 instructions: 9860000002 cycles: 2815780133 heartbeat IPC: 3.531 cumulative IPC: 3.502 (Simulation time: 04 hr 59 min 46 sec)
Heartbeat CPU 0 instructions: 9870000000 cycles: 2818607880 heartbeat IPC: 3.536 cumulative IPC: 3.502 (Simulation time: 05 hr 00 min 06 sec)
Heartbeat CPU 0 instructions: 9880000003 cycles: 2821418209 heartbeat IPC: 3.558 cumulative IPC: 3.502 (Simulation time: 05 hr 00 min 25 sec)
Heartbeat CPU 0 instructions: 9890000003 cycles: 2824251155 heartbeat IPC: 3.53 cumulative IPC: 3.502 (Simulation time: 05 hr 00 min 44 sec)
Heartbeat CPU 0 instructions: 9900000001 cycles: 2827090640 heartbeat IPC: 3.522 cumulative IPC: 3.502 (Simulation time: 05 hr 01 min 04 sec)
Heartbeat CPU 0 instructions: 9910000002 cycles: 2829901307 heartbeat IPC: 3.558 cumulative IPC: 3.502 (Simulation time: 05 hr 01 min 23 sec)
Heartbeat CPU 0 instructions: 9920000001 cycles: 2832742574 heartbeat IPC: 3.52 cumulative IPC: 3.502 (Simulation time: 05 hr 01 min 43 sec)
Heartbeat CPU 0 instructions: 9930000000 cycles: 2835522126 heartbeat IPC: 3.598 cumulative IPC: 3.502 (Simulation time: 05 hr 02 min 01 sec)
Heartbeat CPU 0 instructions: 9940000003 cycles: 2838302326 heartbeat IPC: 3.597 cumulative IPC: 3.502 (Simulation time: 05 hr 02 min 20 sec)
Heartbeat CPU 0 instructions: 9950000001 cycles: 2841054835 heartbeat IPC: 3.633 cumulative IPC: 3.502 (Simulation time: 05 hr 02 min 39 sec)
Heartbeat CPU 0 instructions: 9960000004 cycles: 2845952557 heartbeat IPC: 2.042 cumulative IPC: 3.5 (Simulation time: 05 hr 03 min 08 sec)
Heartbeat CPU 0 instructions: 9970000000 cycles: 2849314784 heartbeat IPC: 2.974 cumulative IPC: 3.499 (Simulation time: 05 hr 03 min 30 sec)
Heartbeat CPU 0 instructions: 9980000001 cycles: 2852065599 heartbeat IPC: 3.635 cumulative IPC: 3.499 (Simulation time: 05 hr 03 min 48 sec)
Heartbeat CPU 0 instructions: 9990000004 cycles: 2854837278 heartbeat IPC: 3.608 cumulative IPC: 3.499 (Simulation time: 05 hr 04 min 07 sec)
*** Reached end of trace: (0, "traces/603.bwaves_s-1080B.champsimtrace.xz")
Heartbeat CPU 0 instructions: 10000000003 cycles: 2857656880 heartbeat IPC: 3.547 cumulative IPC: 3.499 (Simulation time: 05 hr 04 min 26 sec)
Simulation finished CPU 0 instructions: 10000000003 cycles: 2857656880 cumulative IPC: 3.499 (Simulation time: 05 hr 04 min 26 sec)
Simulation complete CPU 0 instructions: 10000000003 cycles: 2857656880 cumulative IPC: 3.499 (Simulation time: 05 hr 04 min 26 sec)

ChampSim completed all CPUs

=== Simulation ===
CPU 0 runs traces/603.bwaves_s-1080B.champsimtrace.xz
Region of Interest Statistics

CPU 0 cumulative IPC: 3.499 instructions: 10000000003 cycles: 2857656880
CPU 0 Branch Prediction Accuracy: 99.16% MPKI: 1.228 Average ROB Occupancy at Mispredict: 145.4
Branch type MPKI
BRANCH_DIRECT_JUMP: 0.193
BRANCH_INDIRECT: 2.1e-06
BRANCH_CONDITIONAL: 0.902
BRANCH_DIRECT_CALL: 6.4e-06
BRANCH_INDIRECT_CALL: 0
BRANCH_RETURN: 0.134

LLC TOTAL        ACCESS:    6278369 HIT:    2982541 MISS:    3295828
LLC LOAD         ACCESS:     302213 HIT:        697 MISS:     301516
LLC RFO          ACCESS:    2994764 HIT:       1093 MISS:    2993671
LLC PREFETCH     ACCESS:          0 HIT:          0 MISS:          0
LLC WRITE        ACCESS:    2981069 HIT:    2980742 MISS:        327
LLC TRANSLATION  ACCESS:        323 HIT:          9 MISS:        314
LLC PREFETCH REQUESTED:          0 ISSUED:          0 USEFUL:          0 USELESS:          0
LLC AVERAGE MISS LATENCY: 408.1 cycles
cpu0_DTLB TOTAL        ACCESS: 1633767097 HIT: 1633421950 MISS:     345147
cpu0_DTLB LOAD         ACCESS: 1633767097 HIT: 1633421950 MISS:     345147
cpu0_DTLB RFO          ACCESS:          0 HIT:          0 MISS:          0
cpu0_DTLB PREFETCH     ACCESS:          0 HIT:          0 MISS:          0
cpu0_DTLB WRITE        ACCESS:          0 HIT:          0 MISS:          0
cpu0_DTLB TRANSLATION  ACCESS:          0 HIT:          0 MISS:          0
cpu0_DTLB PREFETCH REQUESTED:          0 ISSUED:          0 USEFUL:          0 USELESS:          0
cpu0_DTLB AVERAGE MISS LATENCY: 6.473 cycles
cpu0_ITLB TOTAL        ACCESS:   37282914 HIT:   37282882 MISS:         32
cpu0_ITLB LOAD         ACCESS:   37282914 HIT:   37282882 MISS:         32
cpu0_ITLB RFO          ACCESS:          0 HIT:          0 MISS:          0
cpu0_ITLB PREFETCH     ACCESS:          0 HIT:          0 MISS:          0
cpu0_ITLB WRITE        ACCESS:          0 HIT:          0 MISS:          0
cpu0_ITLB TRANSLATION  ACCESS:          0 HIT:          0 MISS:          0
cpu0_ITLB PREFETCH REQUESTED:          0 ISSUED:          0 USEFUL:          0 USELESS:          0
cpu0_ITLB AVERAGE MISS LATENCY: 186.2 cycles
cpu0_L1D TOTAL        ACCESS: 2513083242 HIT: 2490233020 MISS:   22850222
cpu0_L1D LOAD         ACCESS: 2091604620 HIT: 2090751287 MISS:     853333
cpu0_L1D RFO          ACCESS:          0 HIT:          0 MISS:          0
cpu0_L1D PREFETCH     ACCESS:          0 HIT:          0 MISS:          0
cpu0_L1D WRITE        ACCESS:  421427013 HIT:  399435102 MISS:   21991911
cpu0_L1D TRANSLATION  ACCESS:      51609 HIT:      46631 MISS:       4978
cpu0_L1D PREFETCH REQUESTED:          0 ISSUED:          0 USEFUL:          0 USELESS:          0
cpu0_L1D AVERAGE MISS LATENCY: 59.17 cycles
cpu0_L1I TOTAL        ACCESS:   43160150 HIT:   43159847 MISS:        303
cpu0_L1I LOAD         ACCESS:   43160150 HIT:   43159847 MISS:        303
cpu0_L1I RFO          ACCESS:          0 HIT:          0 MISS:          0
cpu0_L1I PREFETCH     ACCESS:          0 HIT:          0 MISS:          0
cpu0_L1I WRITE        ACCESS:          0 HIT:          0 MISS:          0
cpu0_L1I TRANSLATION  ACCESS:          0 HIT:          0 MISS:          0
cpu0_L1I PREFETCH REQUESTED:          0 ISSUED:          0 USEFUL:          0 USELESS:          0
cpu0_L1I AVERAGE MISS LATENCY: 115.2 cycles
cpu0_L2C TOTAL        ACCESS:    6361235 HIT:    3063531 MISS:    3297704
cpu0_L2C LOAD         ACCESS:     329176 HIT:      26963 MISS:     302213
cpu0_L2C RFO          ACCESS:    3019783 HIT:      25019 MISS:    2994764
cpu0_L2C PREFETCH     ACCESS:          0 HIT:          0 MISS:          0
cpu0_L2C WRITE        ACCESS:    3007298 HIT:    3006894 MISS:        404
cpu0_L2C TRANSLATION  ACCESS:       4978 HIT:       4655 MISS:        323
cpu0_L2C PREFETCH REQUESTED:          0 ISSUED:          0 USEFUL:          0 USELESS:          0
cpu0_L2C AVERAGE MISS LATENCY: 428.9 cycles
cpu0_STLB TOTAL        ACCESS:      53144 HIT:       1570 MISS:      51574
cpu0_STLB LOAD         ACCESS:      53144 HIT:       1570 MISS:      51574
cpu0_STLB RFO          ACCESS:          0 HIT:          0 MISS:          0
cpu0_STLB PREFETCH     ACCESS:          0 HIT:          0 MISS:          0
cpu0_STLB WRITE        ACCESS:          0 HIT:          0 MISS:          0
cpu0_STLB TRANSLATION  ACCESS:          0 HIT:          0 MISS:          0
cpu0_STLB PREFETCH REQUESTED:          0 ISSUED:          0 USEFUL:          0 USELESS:          0
cpu0_STLB AVERAGE MISS LATENCY: 50.01 cycles

DRAM Statistics

Channel 0 RQ ROW_BUFFER_HIT:    1176182
  ROW_BUFFER_MISS:    2119319
 AVG DBUS CONGESTED CYCLE: 3.931
WQ ROW_BUFFER_HIT: Channel 0 
  ROW_BUFFER_MISS:    1017877
  FULL:    1940842
