WARNING: physical memory size is smaller than virtual memory size.

*** ChampSim Multicore Out-of-Order Simulator ***
Warmup Instructions: 1000000000
Simulation Instructions: 500000000
Number of CPUs: 1
Page size: 4096

Off-chip DRAM Size: 4 GiB Channels: 1 Width: 64-bit Data Race: 3200 MT/s
Heartbeat CPU 0 instructions: 10000002 cycles: 2521258 heartbeat IPC: 3.966 cumulative IPC: 3.966 (Simulation time: 00 hr 00 min 38 sec)
Heartbeat CPU 0 instructions: 20000002 cycles: 5034761 heartbeat IPC: 3.979 cumulative IPC: 3.972 (Simulation time: 00 hr 01 min 16 sec)
Heartbeat CPU 0 instructions: 30000000 cycles: 7565326 heartbeat IPC: 3.952 cumulative IPC: 3.965 (Simulation time: 00 hr 01 min 51 sec)
Heartbeat CPU 0 instructions: 40000001 cycles: 10095836 heartbeat IPC: 3.952 cumulative IPC: 3.962 (Simulation time: 00 hr 02 min 27 sec)
Heartbeat CPU 0 instructions: 50000000 cycles: 12625869 heartbeat IPC: 3.953 cumulative IPC: 3.96 (Simulation time: 00 hr 03 min 03 sec)
Heartbeat CPU 0 instructions: 60000000 cycles: 15158197 heartbeat IPC: 3.949 cumulative IPC: 3.958 (Simulation time: 00 hr 03 min 39 sec)
Heartbeat CPU 0 instructions: 70000001 cycles: 17690716 heartbeat IPC: 3.949 cumulative IPC: 3.957 (Simulation time: 00 hr 04 min 14 sec)
Heartbeat CPU 0 instructions: 80000001 cycles: 20223247 heartbeat IPC: 3.949 cumulative IPC: 3.956 (Simulation time: 00 hr 04 min 51 sec)
Heartbeat CPU 0 instructions: 90000003 cycles: 22755506 heartbeat IPC: 3.949 cumulative IPC: 3.955 (Simulation time: 00 hr 05 min 27 sec)
Heartbeat CPU 0 instructions: 100000003 cycles: 25288819 heartbeat IPC: 3.947 cumulative IPC: 3.954 (Simulation time: 00 hr 06 min 03 sec)
Heartbeat CPU 0 instructions: 110000003 cycles: 27822975 heartbeat IPC: 3.946 cumulative IPC: 3.954 (Simulation time: 00 hr 06 min 38 sec)
Heartbeat CPU 0 instructions: 120000003 cycles: 30357568 heartbeat IPC: 3.945 cumulative IPC: 3.953 (Simulation time: 00 hr 07 min 15 sec)
Heartbeat CPU 0 instructions: 130000002 cycles: 32892554 heartbeat IPC: 3.945 cumulative IPC: 3.952 (Simulation time: 00 hr 07 min 52 sec)
Heartbeat CPU 0 instructions: 140000000 cycles: 35427262 heartbeat IPC: 3.945 cumulative IPC: 3.952 (Simulation time: 00 hr 08 min 28 sec)
Heartbeat CPU 0 instructions: 150000001 cycles: 37960731 heartbeat IPC: 3.947 cumulative IPC: 3.951 (Simulation time: 00 hr 09 min 03 sec)
Heartbeat CPU 0 instructions: 160000000 cycles: 40494616 heartbeat IPC: 3.947 cumulative IPC: 3.951 (Simulation time: 00 hr 09 min 39 sec)
Heartbeat CPU 0 instructions: 170000003 cycles: 43027379 heartbeat IPC: 3.948 cumulative IPC: 3.951 (Simulation time: 00 hr 10 min 14 sec)
Heartbeat CPU 0 instructions: 180000003 cycles: 45561204 heartbeat IPC: 3.947 cumulative IPC: 3.951 (Simulation time: 00 hr 10 min 50 sec)
Heartbeat CPU 0 instructions: 190000002 cycles: 48094212 heartbeat IPC: 3.948 cumulative IPC: 3.951 (Simulation time: 00 hr 11 min 25 sec)
Heartbeat CPU 0 instructions: 200000001 cycles: 50627175 heartbeat IPC: 3.948 cumulative IPC: 3.95 (Simulation time: 00 hr 12 min 01 sec)
Heartbeat CPU 0 instructions: 210000002 cycles: 53160958 heartbeat IPC: 3.947 cumulative IPC: 3.95 (Simulation time: 00 hr 12 min 36 sec)
Heartbeat CPU 0 instructions: 220000002 cycles: 55693659 heartbeat IPC: 3.948 cumulative IPC: 3.95 (Simulation time: 00 hr 13 min 12 sec)
Heartbeat CPU 0 instructions: 230000000 cycles: 58227284 heartbeat IPC: 3.947 cumulative IPC: 3.95 (Simulation time: 00 hr 13 min 47 sec)
Heartbeat CPU 0 instructions: 240000003 cycles: 60760432 heartbeat IPC: 3.948 cumulative IPC: 3.95 (Simulation time: 00 hr 14 min 22 sec)
Heartbeat CPU 0 instructions: 250000002 cycles: 63293343 heartbeat IPC: 3.948 cumulative IPC: 3.95 (Simulation time: 00 hr 14 min 58 sec)
Heartbeat CPU 0 instructions: 260000003 cycles: 65826711 heartbeat IPC: 3.947 cumulative IPC: 3.95 (Simulation time: 00 hr 15 min 30 sec)
Heartbeat CPU 0 instructions: 270000002 cycles: 68359690 heartbeat IPC: 3.948 cumulative IPC: 3.95 (Simulation time: 00 hr 16 min 05 sec)
Heartbeat CPU 0 instructions: 280000001 cycles: 70893012 heartbeat IPC: 3.947 cumulative IPC: 3.95 (Simulation time: 00 hr 16 min 40 sec)
Heartbeat CPU 0 instructions: 290000001 cycles: 73426281 heartbeat IPC: 3.947 cumulative IPC: 3.95 (Simulation time: 00 hr 17 min 15 sec)
Heartbeat CPU 0 instructions: 300000000 cycles: 75959276 heartbeat IPC: 3.948 cumulative IPC: 3.949 (Simulation time: 00 hr 17 min 50 sec)
Heartbeat CPU 0 instructions: 310000000 cycles: 78492575 heartbeat IPC: 3.947 cumulative IPC: 3.949 (Simulation time: 00 hr 18 min 24 sec)
Heartbeat CPU 0 instructions: 320000002 cycles: 81025657 heartbeat IPC: 3.948 cumulative IPC: 3.949 (Simulation time: 00 hr 18 min 59 sec)
Heartbeat CPU 0 instructions: 330000001 cycles: 83559263 heartbeat IPC: 3.947 cumulative IPC: 3.949 (Simulation time: 00 hr 19 min 33 sec)
Heartbeat CPU 0 instructions: 340000001 cycles: 86092978 heartbeat IPC: 3.947 cumulative IPC: 3.949 (Simulation time: 00 hr 20 min 08 sec)
Heartbeat CPU 0 instructions: 350000000 cycles: 88627633 heartbeat IPC: 3.945 cumulative IPC: 3.949 (Simulation time: 00 hr 20 min 42 sec)
Heartbeat CPU 0 instructions: 360000001 cycles: 91162820 heartbeat IPC: 3.944 cumulative IPC: 3.949 (Simulation time: 00 hr 21 min 16 sec)
Heartbeat CPU 0 instructions: 370000002 cycles: 93697523 heartbeat IPC: 3.945 cumulative IPC: 3.949 (Simulation time: 00 hr 21 min 51 sec)
Heartbeat CPU 0 instructions: 380000000 cycles: 96231703 heartbeat IPC: 3.946 cumulative IPC: 3.949 (Simulation time: 00 hr 22 min 25 sec)
Heartbeat CPU 0 instructions: 390000000 cycles: 98764605 heartbeat IPC: 3.948 cumulative IPC: 3.949 (Simulation time: 00 hr 23 min 00 sec)
Heartbeat CPU 0 instructions: 400000003 cycles: 101297244 heartbeat IPC: 3.948 cumulative IPC: 3.949 (Simulation time: 00 hr 23 min 34 sec)
Heartbeat CPU 0 instructions: 410000002 cycles: 103829508 heartbeat IPC: 3.949 cumulative IPC: 3.949 (Simulation time: 00 hr 24 min 08 sec)
Heartbeat CPU 0 instructions: 420000004 cycles: 106361800 heartbeat IPC: 3.949 cumulative IPC: 3.949 (Simulation time: 00 hr 24 min 37 sec)
Heartbeat CPU 0 instructions: 430000001 cycles: 108893534 heartbeat IPC: 3.95 cumulative IPC: 3.949 (Simulation time: 00 hr 24 min 55 sec)
Heartbeat CPU 0 instructions: 440000003 cycles: 111423705 heartbeat IPC: 3.952 cumulative IPC: 3.949 (Simulation time: 00 hr 25 min 14 sec)
Heartbeat CPU 0 instructions: 450000004 cycles: 113954112 heartbeat IPC: 3.952 cumulative IPC: 3.949 (Simulation time: 00 hr 25 min 32 sec)
Heartbeat CPU 0 instructions: 460000001 cycles: 116484550 heartbeat IPC: 3.952 cumulative IPC: 3.949 (Simulation time: 00 hr 25 min 51 sec)
Heartbeat CPU 0 instructions: 470000003 cycles: 118994892 heartbeat IPC: 3.984 cumulative IPC: 3.95 (Simulation time: 00 hr 26 min 11 sec)
Heartbeat CPU 0 instructions: 480000002 cycles: 121520635 heartbeat IPC: 3.959 cumulative IPC: 3.95 (Simulation time: 00 hr 26 min 29 sec)
Heartbeat CPU 0 instructions: 490000001 cycles: 124054668 heartbeat IPC: 3.946 cumulative IPC: 3.95 (Simulation time: 00 hr 26 min 48 sec)
Heartbeat CPU 0 instructions: 500000003 cycles: 126587720 heartbeat IPC: 3.948 cumulative IPC: 3.95 (Simulation time: 00 hr 27 min 06 sec)
Heartbeat CPU 0 instructions: 510000003 cycles: 129119499 heartbeat IPC: 3.95 cumulative IPC: 3.95 (Simulation time: 00 hr 27 min 25 sec)
Heartbeat CPU 0 instructions: 520000001 cycles: 131651555 heartbeat IPC: 3.949 cumulative IPC: 3.95 (Simulation time: 00 hr 27 min 43 sec)
Heartbeat CPU 0 instructions: 530000001 cycles: 134172839 heartbeat IPC: 3.966 cumulative IPC: 3.95 (Simulation time: 00 hr 28 min 02 sec)
Heartbeat CPU 0 instructions: 540000003 cycles: 136692672 heartbeat IPC: 3.969 cumulative IPC: 3.95 (Simulation time: 00 hr 28 min 21 sec)
Heartbeat CPU 0 instructions: 550000003 cycles: 139212567 heartbeat IPC: 3.968 cumulative IPC: 3.951 (Simulation time: 00 hr 28 min 40 sec)
Heartbeat CPU 0 instructions: 560000003 cycles: 141732623 heartbeat IPC: 3.968 cumulative IPC: 3.951 (Simulation time: 00 hr 28 min 59 sec)
Heartbeat CPU 0 instructions: 570000003 cycles: 144252532 heartbeat IPC: 3.968 cumulative IPC: 3.951 (Simulation time: 00 hr 29 min 18 sec)
Heartbeat CPU 0 instructions: 580000003 cycles: 146772472 heartbeat IPC: 3.968 cumulative IPC: 3.952 (Simulation time: 00 hr 29 min 37 sec)
Heartbeat CPU 0 instructions: 590000001 cycles: 149291789 heartbeat IPC: 3.969 cumulative IPC: 3.952 (Simulation time: 00 hr 29 min 56 sec)
Heartbeat CPU 0 instructions: 600000001 cycles: 151810730 heartbeat IPC: 3.97 cumulative IPC: 3.952 (Simulation time: 00 hr 30 min 15 sec)
Heartbeat CPU 0 instructions: 610000001 cycles: 154329652 heartbeat IPC: 3.97 cumulative IPC: 3.953 (Simulation time: 00 hr 30 min 34 sec)
Heartbeat CPU 0 instructions: 620000001 cycles: 156848562 heartbeat IPC: 3.97 cumulative IPC: 3.953 (Simulation time: 00 hr 30 min 53 sec)
Heartbeat CPU 0 instructions: 630000001 cycles: 159367184 heartbeat IPC: 3.97 cumulative IPC: 3.953 (Simulation time: 00 hr 31 min 12 sec)
Heartbeat CPU 0 instructions: 640000002 cycles: 161887927 heartbeat IPC: 3.967 cumulative IPC: 3.953 (Simulation time: 00 hr 31 min 30 sec)
Heartbeat CPU 0 instructions: 650000003 cycles: 164419436 heartbeat IPC: 3.95 cumulative IPC: 3.953 (Simulation time: 00 hr 31 min 49 sec)
Heartbeat CPU 0 instructions: 660000003 cycles: 166952149 heartbeat IPC: 3.948 cumulative IPC: 3.953 (Simulation time: 00 hr 32 min 07 sec)
Heartbeat CPU 0 instructions: 670000003 cycles: 169479432 heartbeat IPC: 3.957 cumulative IPC: 3.953 (Simulation time: 00 hr 32 min 26 sec)
Heartbeat CPU 0 instructions: 680000003 cycles: 172013197 heartbeat IPC: 3.947 cumulative IPC: 3.953 (Simulation time: 00 hr 32 min 45 sec)
Heartbeat CPU 0 instructions: 690000001 cycles: 174547687 heartbeat IPC: 3.946 cumulative IPC: 3.953 (Simulation time: 00 hr 33 min 03 sec)
Heartbeat CPU 0 instructions: 700000003 cycles: 177082150 heartbeat IPC: 3.946 cumulative IPC: 3.953 (Simulation time: 00 hr 33 min 21 sec)
Heartbeat CPU 0 instructions: 710000000 cycles: 179616476 heartbeat IPC: 3.946 cumulative IPC: 3.953 (Simulation time: 00 hr 33 min 39 sec)
Heartbeat CPU 0 instructions: 720000001 cycles: 182149071 heartbeat IPC: 3.949 cumulative IPC: 3.953 (Simulation time: 00 hr 33 min 58 sec)
Heartbeat CPU 0 instructions: 730000003 cycles: 184656261 heartbeat IPC: 3.989 cumulative IPC: 3.953 (Simulation time: 00 hr 34 min 18 sec)
Heartbeat CPU 0 instructions: 740000000 cycles: 187186158 heartbeat IPC: 3.953 cumulative IPC: 3.953 (Simulation time: 00 hr 34 min 37 sec)
Heartbeat CPU 0 instructions: 750000001 cycles: 189721088 heartbeat IPC: 3.945 cumulative IPC: 3.953 (Simulation time: 00 hr 34 min 55 sec)
Heartbeat CPU 0 instructions: 760000003 cycles: 192255631 heartbeat IPC: 3.945 cumulative IPC: 3.953 (Simulation time: 00 hr 35 min 13 sec)
Heartbeat CPU 0 instructions: 770000000 cycles: 194790767 heartbeat IPC: 3.945 cumulative IPC: 3.953 (Simulation time: 00 hr 35 min 31 sec)
Heartbeat CPU 0 instructions: 780000001 cycles: 197324751 heartbeat IPC: 3.946 cumulative IPC: 3.953 (Simulation time: 00 hr 35 min 50 sec)
Heartbeat CPU 0 instructions: 790000000 cycles: 199857812 heartbeat IPC: 3.948 cumulative IPC: 3.953 (Simulation time: 00 hr 36 min 08 sec)
Heartbeat CPU 0 instructions: 800000003 cycles: 202388019 heartbeat IPC: 3.952 cumulative IPC: 3.953 (Simulation time: 00 hr 36 min 27 sec)
Heartbeat CPU 0 instructions: 810000001 cycles: 204914556 heartbeat IPC: 3.958 cumulative IPC: 3.953 (Simulation time: 00 hr 36 min 47 sec)
Heartbeat CPU 0 instructions: 820000000 cycles: 207439873 heartbeat IPC: 3.96 cumulative IPC: 3.953 (Simulation time: 00 hr 37 min 07 sec)
Heartbeat CPU 0 instructions: 830000001 cycles: 209969973 heartbeat IPC: 3.952 cumulative IPC: 3.953 (Simulation time: 00 hr 37 min 25 sec)
Heartbeat CPU 0 instructions: 840000000 cycles: 212499975 heartbeat IPC: 3.953 cumulative IPC: 3.953 (Simulation time: 00 hr 37 min 44 sec)
Heartbeat CPU 0 instructions: 850000001 cycles: 215029923 heartbeat IPC: 3.953 cumulative IPC: 3.953 (Simulation time: 00 hr 38 min 02 sec)
Heartbeat CPU 0 instructions: 860000000 cycles: 217560000 heartbeat IPC: 3.952 cumulative IPC: 3.953 (Simulation time: 00 hr 38 min 21 sec)
Heartbeat CPU 0 instructions: 870000001 cycles: 220090029 heartbeat IPC: 3.953 cumulative IPC: 3.953 (Simulation time: 00 hr 38 min 40 sec)
Heartbeat CPU 0 instructions: 880000002 cycles: 222620096 heartbeat IPC: 3.952 cumulative IPC: 3.953 (Simulation time: 00 hr 38 min 58 sec)
Heartbeat CPU 0 instructions: 890000001 cycles: 225149681 heartbeat IPC: 3.953 cumulative IPC: 3.953 (Simulation time: 00 hr 39 min 15 sec)
Heartbeat CPU 0 instructions: 900000001 cycles: 227679664 heartbeat IPC: 3.953 cumulative IPC: 3.953 (Simulation time: 00 hr 39 min 32 sec)
Heartbeat CPU 0 instructions: 910000003 cycles: 230209725 heartbeat IPC: 3.952 cumulative IPC: 3.953 (Simulation time: 00 hr 39 min 49 sec)
Heartbeat CPU 0 instructions: 920000002 cycles: 232739724 heartbeat IPC: 3.953 cumulative IPC: 3.953 (Simulation time: 00 hr 40 min 06 sec)
Heartbeat CPU 0 instructions: 930000001 cycles: 235262470 heartbeat IPC: 3.964 cumulative IPC: 3.953 (Simulation time: 00 hr 40 min 22 sec)
Heartbeat CPU 0 instructions: 940000000 cycles: 237792737 heartbeat IPC: 3.952 cumulative IPC: 3.953 (Simulation time: 00 hr 40 min 39 sec)
Heartbeat CPU 0 instructions: 950000000 cycles: 240321889 heartbeat IPC: 3.954 cumulative IPC: 3.953 (Simulation time: 00 hr 40 min 55 sec)
Heartbeat CPU 0 instructions: 960000000 cycles: 242852273 heartbeat IPC: 3.952 cumulative IPC: 3.953 (Simulation time: 00 hr 41 min 11 sec)
Heartbeat CPU 0 instructions: 970000001 cycles: 245386299 heartbeat IPC: 3.946 cumulative IPC: 3.953 (Simulation time: 00 hr 41 min 26 sec)
Heartbeat CPU 0 instructions: 980000002 cycles: 247920868 heartbeat IPC: 3.945 cumulative IPC: 3.953 (Simulation time: 00 hr 41 min 41 sec)
Heartbeat CPU 0 instructions: 990000001 cycles: 250455802 heartbeat IPC: 3.945 cumulative IPC: 3.953 (Simulation time: 00 hr 41 min 56 sec)
Heartbeat CPU 0 instructions: 1000000002 cycles: 252990562 heartbeat IPC: 3.945 cumulative IPC: 3.953 (Simulation time: 00 hr 42 min 11 sec)
Warmup finished CPU 0 instructions: 1000000002 cycles: 252990563 cumulative IPC: 3.953 (Simulation time: 00 hr 42 min 11 sec)
Warmup complete CPU 0 instructions: 1000000002 cycles: 252990563 cumulative IPC: 3.953 (Simulation time: 00 hr 42 min 11 sec)
Heartbeat CPU 0 instructions: 1010000000 cycles: 256632087 heartbeat IPC: 2.746 cumulative IPC: 2.746 (Simulation time: 00 hr 42 min 33 sec)
Heartbeat CPU 0 instructions: 1020000001 cycles: 261369393 heartbeat IPC: 2.111 cumulative IPC: 2.387 (Simulation time: 00 hr 43 min 00 sec)
Heartbeat CPU 0 instructions: 1030000002 cycles: 264108187 heartbeat IPC: 3.651 cumulative IPC: 2.698 (Simulation time: 00 hr 43 min 18 sec)
Heartbeat CPU 0 instructions: 1040000003 cycles: 266843366 heartbeat IPC: 3.656 cumulative IPC: 2.888 (Simulation time: 00 hr 43 min 35 sec)
Heartbeat CPU 0 instructions: 1050000000 cycles: 269583969 heartbeat IPC: 3.649 cumulative IPC: 3.013 (Simulation time: 00 hr 43 min 53 sec)
Heartbeat CPU 0 instructions: 1060000003 cycles: 272427257 heartbeat IPC: 3.517 cumulative IPC: 3.087 (Simulation time: 00 hr 44 min 11 sec)
Heartbeat CPU 0 instructions: 1070000002 cycles: 275249441 heartbeat IPC: 3.543 cumulative IPC: 3.145 (Simulation time: 00 hr 44 min 29 sec)
Heartbeat CPU 0 instructions: 1080000001 cycles: 278079152 heartbeat IPC: 3.534 cumulative IPC: 3.189 (Simulation time: 00 hr 44 min 47 sec)
Heartbeat CPU 0 instructions: 1090000000 cycles: 280911785 heartbeat IPC: 3.53 cumulative IPC: 3.223 (Simulation time: 00 hr 45 min 06 sec)
Heartbeat CPU 0 instructions: 1100000001 cycles: 283728284 heartbeat IPC: 3.551 cumulative IPC: 3.253 (Simulation time: 00 hr 45 min 24 sec)
Heartbeat CPU 0 instructions: 1110000001 cycles: 286533168 heartbeat IPC: 3.565 cumulative IPC: 3.279 (Simulation time: 00 hr 45 min 42 sec)
Heartbeat CPU 0 instructions: 1120000003 cycles: 289341339 heartbeat IPC: 3.561 cumulative IPC: 3.301 (Simulation time: 00 hr 46 min 00 sec)
Heartbeat CPU 0 instructions: 1130000002 cycles: 292149771 heartbeat IPC: 3.561 cumulative IPC: 3.32 (Simulation time: 00 hr 46 min 18 sec)
Heartbeat CPU 0 instructions: 1140000003 cycles: 294941193 heartbeat IPC: 3.582 cumulative IPC: 3.337 (Simulation time: 00 hr 46 min 36 sec)
Heartbeat CPU 0 instructions: 1150000000 cycles: 297755680 heartbeat IPC: 3.553 cumulative IPC: 3.351 (Simulation time: 00 hr 46 min 55 sec)
Heartbeat CPU 0 instructions: 1160000000 cycles: 300563706 heartbeat IPC: 3.561 cumulative IPC: 3.363 (Simulation time: 00 hr 47 min 13 sec)
Heartbeat CPU 0 instructions: 1170000001 cycles: 303375215 heartbeat IPC: 3.557 cumulative IPC: 3.374 (Simulation time: 00 hr 47 min 31 sec)
Heartbeat CPU 0 instructions: 1180000000 cycles: 306171631 heartbeat IPC: 3.576 cumulative IPC: 3.385 (Simulation time: 00 hr 47 min 49 sec)
Heartbeat CPU 0 instructions: 1190000000 cycles: 308983582 heartbeat IPC: 3.556 cumulative IPC: 3.393 (Simulation time: 00 hr 48 min 07 sec)
Heartbeat CPU 0 instructions: 1200000004 cycles: 311787116 heartbeat IPC: 3.567 cumulative IPC: 3.402 (Simulation time: 00 hr 48 min 25 sec)
Heartbeat CPU 0 instructions: 1210000001 cycles: 314575487 heartbeat IPC: 3.586 cumulative IPC: 3.41 (Simulation time: 00 hr 48 min 43 sec)
Heartbeat CPU 0 instructions: 1220000000 cycles: 317385540 heartbeat IPC: 3.559 cumulative IPC: 3.416 (Simulation time: 00 hr 49 min 01 sec)
Heartbeat CPU 0 instructions: 1230000001 cycles: 320184766 heartbeat IPC: 3.572 cumulative IPC: 3.423 (Simulation time: 00 hr 49 min 19 sec)
Heartbeat CPU 0 instructions: 1240000004 cycles: 322992765 heartbeat IPC: 3.561 cumulative IPC: 3.428 (Simulation time: 00 hr 49 min 37 sec)
Heartbeat CPU 0 instructions: 1250000001 cycles: 325797154 heartbeat IPC: 3.566 cumulative IPC: 3.434 (Simulation time: 00 hr 49 min 55 sec)
Heartbeat CPU 0 instructions: 1260000001 cycles: 328594233 heartbeat IPC: 3.575 cumulative IPC: 3.439 (Simulation time: 00 hr 50 min 13 sec)
Heartbeat CPU 0 instructions: 1270000002 cycles: 331401108 heartbeat IPC: 3.563 cumulative IPC: 3.443 (Simulation time: 00 hr 50 min 31 sec)
Heartbeat CPU 0 instructions: 1280000000 cycles: 334216100 heartbeat IPC: 3.552 cumulative IPC: 3.447 (Simulation time: 00 hr 50 min 50 sec)
Heartbeat CPU 0 instructions: 1290000002 cycles: 337055567 heartbeat IPC: 3.522 cumulative IPC: 3.45 (Simulation time: 00 hr 51 min 08 sec)
Heartbeat CPU 0 instructions: 1300000004 cycles: 339882021 heartbeat IPC: 3.538 cumulative IPC: 3.453 (Simulation time: 00 hr 51 min 26 sec)
Heartbeat CPU 0 instructions: 1310000004 cycles: 342687428 heartbeat IPC: 3.565 cumulative IPC: 3.456 (Simulation time: 00 hr 51 min 45 sec)
Heartbeat CPU 0 instructions: 1320000000 cycles: 345534033 heartbeat IPC: 3.513 cumulative IPC: 3.458 (Simulation time: 00 hr 52 min 03 sec)
Heartbeat CPU 0 instructions: 1330000000 cycles: 348274512 heartbeat IPC: 3.649 cumulative IPC: 3.463 (Simulation time: 00 hr 52 min 20 sec)
Heartbeat CPU 0 instructions: 1340000004 cycles: 351011171 heartbeat IPC: 3.654 cumulative IPC: 3.469 (Simulation time: 00 hr 52 min 38 sec)
Heartbeat CPU 0 instructions: 1350000000 cycles: 353745771 heartbeat IPC: 3.657 cumulative IPC: 3.474 (Simulation time: 00 hr 52 min 56 sec)
Heartbeat CPU 0 instructions: 1360000004 cycles: 357747394 heartbeat IPC: 2.499 cumulative IPC: 3.437 (Simulation time: 00 hr 53 min 19 sec)
Heartbeat CPU 0 instructions: 1370000004 cycles: 362022450 heartbeat IPC: 2.339 cumulative IPC: 3.394 (Simulation time: 00 hr 53 min 44 sec)
Heartbeat CPU 0 instructions: 1380000000 cycles: 364786736 heartbeat IPC: 3.618 cumulative IPC: 3.399 (Simulation time: 00 hr 54 min 02 sec)
Heartbeat CPU 0 instructions: 1390000002 cycles: 367537421 heartbeat IPC: 3.635 cumulative IPC: 3.405 (Simulation time: 00 hr 54 min 19 sec)
Heartbeat CPU 0 instructions: 1400000004 cycles: 370291903 heartbeat IPC: 3.63 cumulative IPC: 3.41 (Simulation time: 00 hr 54 min 37 sec)
Heartbeat CPU 0 instructions: 1410000004 cycles: 373070414 heartbeat IPC: 3.599 cumulative IPC: 3.414 (Simulation time: 00 hr 54 min 55 sec)
Heartbeat CPU 0 instructions: 1420000002 cycles: 375825240 heartbeat IPC: 3.63 cumulative IPC: 3.419 (Simulation time: 00 hr 55 min 12 sec)
Heartbeat CPU 0 instructions: 1430000000 cycles: 378579883 heartbeat IPC: 3.63 cumulative IPC: 3.424 (Simulation time: 00 hr 55 min 30 sec)
Heartbeat CPU 0 instructions: 1440000000 cycles: 381325995 heartbeat IPC: 3.642 cumulative IPC: 3.429 (Simulation time: 00 hr 55 min 48 sec)
Heartbeat CPU 0 instructions: 1450000002 cycles: 384134388 heartbeat IPC: 3.561 cumulative IPC: 3.431 (Simulation time: 00 hr 56 min 06 sec)
Heartbeat CPU 0 instructions: 1460000003 cycles: 386904251 heartbeat IPC: 3.61 cumulative IPC: 3.435 (Simulation time: 00 hr 56 min 24 sec)
Heartbeat CPU 0 instructions: 1470000000 cycles: 389727393 heartbeat IPC: 3.542 cumulative IPC: 3.437 (Simulation time: 00 hr 56 min 42 sec)
Heartbeat CPU 0 instructions: 1480000000 cycles: 392599051 heartbeat IPC: 3.482 cumulative IPC: 3.438 (Simulation time: 00 hr 57 min 01 sec)
Heartbeat CPU 0 instructions: 1490000000 cycles: 395386425 heartbeat IPC: 3.588 cumulative IPC: 3.441 (Simulation time: 00 hr 57 min 19 sec)
Heartbeat CPU 0 instructions: 1500000002 cycles: 398188642 heartbeat IPC: 3.569 cumulative IPC: 3.444 (Simulation time: 00 hr 57 min 37 sec)
Simulation finished CPU 0 instructions: 500000000 cycles: 145198080 cumulative IPC: 3.444 (Simulation time: 00 hr 57 min 37 sec)
Simulation complete CPU 0 instructions: 500000000 cycles: 145198080 cumulative IPC: 3.444 (Simulation time: 00 hr 57 min 37 sec)

ChampSim completed all CPUs

=== Simulation ===
CPU 0 runs traces/603.bwaves_s-1080B.champsimtrace.xz
Region of Interest Statistics

CPU 0 cumulative IPC: 3.444 instructions: 500000000 cycles: 145198080
CPU 0 Branch Prediction Accuracy: 98.99% MPKI: 1.465 Average ROB Occupancy at Mispredict: 120.1
Branch type MPKI
BRANCH_DIRECT_JUMP: 0.186
BRANCH_INDIRECT: 0
BRANCH_CONDITIONAL: 1.15
BRANCH_DIRECT_CALL: 0
BRANCH_INDIRECT_CALL: 0
BRANCH_RETURN: 0.131

LLC TOTAL        ACCESS:     328048 HIT:     156003 MISS:     172045
LLC LOAD         ACCESS:      15774 HIT:         15 MISS:      15759
LLC RFO          ACCESS:     156263 HIT:         14 MISS:     156249
LLC PREFETCH     ACCESS:          0 HIT:          0 MISS:          0
LLC WRITE        ACCESS:     155990 HIT:     155971 MISS:         19
LLC TRANSLATION  ACCESS:         21 HIT:          3 MISS:         18
LLC PREFETCH REQUESTED:          0 ISSUED:          0 USEFUL:          0 USELESS:          0
LLC AVERAGE MISS LATENCY: 408.4 cycles
cpu0_DTLB TOTAL        ACCESS:   82057380 HIT:   82033405 MISS:      23975
cpu0_DTLB LOAD         ACCESS:   82057380 HIT:   82033405 MISS:      23975
cpu0_DTLB RFO          ACCESS:          0 HIT:          0 MISS:          0
cpu0_DTLB PREFETCH     ACCESS:          0 HIT:          0 MISS:          0
cpu0_DTLB WRITE        ACCESS:          0 HIT:          0 MISS:          0
cpu0_DTLB TRANSLATION  ACCESS:          0 HIT:          0 MISS:          0
cpu0_DTLB PREFETCH REQUESTED:          0 ISSUED:          0 USEFUL:          0 USELESS:          0
cpu0_DTLB AVERAGE MISS LATENCY: 19.67 cycles
cpu0_ITLB TOTAL        ACCESS:    1897032 HIT:    1897032 MISS:          0
cpu0_ITLB LOAD         ACCESS:    1897032 HIT:    1897032 MISS:          0
cpu0_ITLB RFO          ACCESS:          0 HIT:          0 MISS:          0
cpu0_ITLB PREFETCH     ACCESS:          0 HIT:          0 MISS:          0
cpu0_ITLB WRITE        ACCESS:          0 HIT:          0 MISS:          0
cpu0_ITLB TRANSLATION  ACCESS:          0 HIT:          0 MISS:          0
cpu0_ITLB PREFETCH REQUESTED:          0 ISSUED:          0 USEFUL:          0 USELESS:          0
cpu0_ITLB AVERAGE MISS LATENCY: -nan cycles
cpu0_L1D TOTAL        ACCESS:  126250148 HIT:  125057658 MISS:    1192490
cpu0_L1D LOAD         ACCESS:  105134157 HIT:  105090657 MISS:      43500
cpu0_L1D RFO          ACCESS:          0 HIT:          0 MISS:          0
cpu0_L1D PREFETCH     ACCESS:          0 HIT:          0 MISS:          0
cpu0_L1D WRITE        ACCESS:   21113295 HIT:   19964570 MISS:    1148725
cpu0_L1D TRANSLATION  ACCESS:       2696 HIT:       2431 MISS:        265
cpu0_L1D PREFETCH REQUESTED:          0 ISSUED:          0 USEFUL:          0 USELESS:          0
cpu0_L1D AVERAGE MISS LATENCY: 59.16 cycles
cpu0_L1I TOTAL        ACCESS:    2199072 HIT:    2199072 MISS:          0
cpu0_L1I LOAD         ACCESS:    2199072 HIT:    2199072 MISS:          0
cpu0_L1I RFO          ACCESS:          0 HIT:          0 MISS:          0
cpu0_L1I PREFETCH     ACCESS:          0 HIT:          0 MISS:          0
cpu0_L1I WRITE        ACCESS:          0 HIT:          0 MISS:          0
cpu0_L1I TRANSLATION  ACCESS:          0 HIT:          0 MISS:          0
cpu0_L1I PREFETCH REQUESTED:          0 ISSUED:          0 USEFUL:          0 USELESS:          0
cpu0_L1I AVERAGE MISS LATENCY: -nan cycles
cpu0_L2C TOTAL        ACCESS:     331638 HIT:     159563 MISS:     172075
cpu0_L2C LOAD         ACCESS:      16996 HIT:       1222 MISS:      15774
cpu0_L2C RFO          ACCESS:     157467 HIT:       1204 MISS:     156263
cpu0_L2C PREFETCH     ACCESS:          0 HIT:          0 MISS:          0
cpu0_L2C WRITE        ACCESS:     156910 HIT:     156893 MISS:         17
cpu0_L2C TRANSLATION  ACCESS:        265 HIT:        244 MISS:         21
cpu0_L2C PREFETCH REQUESTED:          0 ISSUED:          0 USEFUL:          0 USELESS:          0
cpu0_L2C AVERAGE MISS LATENCY: 429.3 cycles
cpu0_STLB TOTAL        ACCESS:       2816 HIT:        125 MISS:       2691
cpu0_STLB LOAD         ACCESS:       2816 HIT:        125 MISS:       2691
cpu0_STLB RFO          ACCESS:          0 HIT:          0 MISS:          0
cpu0_STLB PREFETCH     ACCESS:          0 HIT:          0 MISS:          0
cpu0_STLB WRITE        ACCESS:          0 HIT:          0 MISS:          0
cpu0_STLB TRANSLATION  ACCESS:          0 HIT:          0 MISS:          0
cpu0_STLB PREFETCH REQUESTED:          0 ISSUED:          0 USEFUL:          0 USELESS:          0
cpu0_STLB AVERAGE MISS LATENCY: 210.3 cycles

DRAM Statistics

Channel 0 RQ ROW_BUFFER_HIT:      59670
  ROW_BUFFER_MISS:     112356
 AVG DBUS CONGESTED CYCLE: 3.932
WQ ROW_BUFFER_HIT: Channel 0 
  ROW_BUFFER_MISS:      53980
  FULL:     101938
