WARNING: physical memory size is smaller than virtual memory size.

*** ChampSim Multicore Out-of-Order Simulator ***
Warmup Instructions: 1000000000
Simulation Instructions: 500000000
Number of CPUs: 1
Page size: 4096

Off-chip DRAM Size: 4 GiB Channels: 1 Width: 64-bit Data Race: 3200 MT/s
Heartbeat CPU 0 instructions: 10000002 cycles: 2514511 heartbeat IPC: 3.977 cumulative IPC: 3.977 (Simulation time: 00 hr 00 min 24 sec)
Heartbeat CPU 0 instructions: 20000001 cycles: 5023547 heartbeat IPC: 3.986 cumulative IPC: 3.981 (Simulation time: 00 hr 00 min 54 sec)
Heartbeat CPU 0 instructions: 30000000 cycles: 7544016 heartbeat IPC: 3.968 cumulative IPC: 3.977 (Simulation time: 00 hr 01 min 25 sec)
Heartbeat CPU 0 instructions: 40000001 cycles: 10064507 heartbeat IPC: 3.967 cumulative IPC: 3.974 (Simulation time: 00 hr 01 min 57 sec)
Heartbeat CPU 0 instructions: 50000000 cycles: 12584771 heartbeat IPC: 3.968 cumulative IPC: 3.973 (Simulation time: 00 hr 02 min 29 sec)
Heartbeat CPU 0 instructions: 60000000 cycles: 15106944 heartbeat IPC: 3.965 cumulative IPC: 3.972 (Simulation time: 00 hr 03 min 01 sec)
Heartbeat CPU 0 instructions: 70000000 cycles: 17629262 heartbeat IPC: 3.965 cumulative IPC: 3.971 (Simulation time: 00 hr 03 min 33 sec)
Heartbeat CPU 0 instructions: 80000001 cycles: 20151625 heartbeat IPC: 3.965 cumulative IPC: 3.97 (Simulation time: 00 hr 04 min 05 sec)
Heartbeat CPU 0 instructions: 90000003 cycles: 22673738 heartbeat IPC: 3.965 cumulative IPC: 3.969 (Simulation time: 00 hr 04 min 37 sec)
Heartbeat CPU 0 instructions: 100000003 cycles: 25196859 heartbeat IPC: 3.963 cumulative IPC: 3.969 (Simulation time: 00 hr 05 min 09 sec)
Heartbeat CPU 0 instructions: 110000003 cycles: 27720584 heartbeat IPC: 3.962 cumulative IPC: 3.968 (Simulation time: 00 hr 05 min 41 sec)
Heartbeat CPU 0 instructions: 120000003 cycles: 30244753 heartbeat IPC: 3.962 cumulative IPC: 3.968 (Simulation time: 00 hr 06 min 04 sec)
Heartbeat CPU 0 instructions: 130000002 cycles: 32769164 heartbeat IPC: 3.961 cumulative IPC: 3.967 (Simulation time: 00 hr 06 min 21 sec)
Heartbeat CPU 0 instructions: 140000000 cycles: 35293358 heartbeat IPC: 3.962 cumulative IPC: 3.967 (Simulation time: 00 hr 06 min 39 sec)
Heartbeat CPU 0 instructions: 150000000 cycles: 37816516 heartbeat IPC: 3.963 cumulative IPC: 3.967 (Simulation time: 00 hr 06 min 56 sec)
Heartbeat CPU 0 instructions: 160000000 cycles: 40339985 heartbeat IPC: 3.963 cumulative IPC: 3.966 (Simulation time: 00 hr 07 min 13 sec)
Heartbeat CPU 0 instructions: 170000003 cycles: 42862600 heartbeat IPC: 3.964 cumulative IPC: 3.966 (Simulation time: 00 hr 07 min 31 sec)
Heartbeat CPU 0 instructions: 180000003 cycles: 45386016 heartbeat IPC: 3.963 cumulative IPC: 3.966 (Simulation time: 00 hr 07 min 48 sec)
Heartbeat CPU 0 instructions: 190000002 cycles: 47908865 heartbeat IPC: 3.964 cumulative IPC: 3.966 (Simulation time: 00 hr 08 min 06 sec)
Heartbeat CPU 0 instructions: 200000001 cycles: 50431615 heartbeat IPC: 3.964 cumulative IPC: 3.966 (Simulation time: 00 hr 08 min 23 sec)
Heartbeat CPU 0 instructions: 210000002 cycles: 52954986 heartbeat IPC: 3.963 cumulative IPC: 3.966 (Simulation time: 00 hr 08 min 40 sec)
Heartbeat CPU 0 instructions: 220000002 cycles: 55477600 heartbeat IPC: 3.964 cumulative IPC: 3.966 (Simulation time: 00 hr 08 min 58 sec)
Heartbeat CPU 0 instructions: 230000000 cycles: 58000837 heartbeat IPC: 3.963 cumulative IPC: 3.965 (Simulation time: 00 hr 09 min 15 sec)
Heartbeat CPU 0 instructions: 240000003 cycles: 60523751 heartbeat IPC: 3.964 cumulative IPC: 3.965 (Simulation time: 00 hr 09 min 33 sec)
Heartbeat CPU 0 instructions: 250000002 cycles: 63046615 heartbeat IPC: 3.964 cumulative IPC: 3.965 (Simulation time: 00 hr 09 min 50 sec)
Heartbeat CPU 0 instructions: 260000003 cycles: 65569771 heartbeat IPC: 3.963 cumulative IPC: 3.965 (Simulation time: 00 hr 10 min 08 sec)
Heartbeat CPU 0 instructions: 270000002 cycles: 68092559 heartbeat IPC: 3.964 cumulative IPC: 3.965 (Simulation time: 00 hr 10 min 25 sec)
Heartbeat CPU 0 instructions: 280000001 cycles: 70615569 heartbeat IPC: 3.964 cumulative IPC: 3.965 (Simulation time: 00 hr 10 min 43 sec)
Heartbeat CPU 0 instructions: 290000001 cycles: 73138693 heartbeat IPC: 3.963 cumulative IPC: 3.965 (Simulation time: 00 hr 11 min 00 sec)
Heartbeat CPU 0 instructions: 300000000 cycles: 75661541 heartbeat IPC: 3.964 cumulative IPC: 3.965 (Simulation time: 00 hr 11 min 18 sec)
Heartbeat CPU 0 instructions: 310000000 cycles: 78184604 heartbeat IPC: 3.963 cumulative IPC: 3.965 (Simulation time: 00 hr 11 min 35 sec)
Heartbeat CPU 0 instructions: 320000002 cycles: 80707518 heartbeat IPC: 3.964 cumulative IPC: 3.965 (Simulation time: 00 hr 11 min 52 sec)
Heartbeat CPU 0 instructions: 330000001 cycles: 83230786 heartbeat IPC: 3.963 cumulative IPC: 3.965 (Simulation time: 00 hr 12 min 10 sec)
Heartbeat CPU 0 instructions: 340000001 cycles: 85754144 heartbeat IPC: 3.963 cumulative IPC: 3.965 (Simulation time: 00 hr 12 min 27 sec)
Heartbeat CPU 0 instructions: 350000000 cycles: 88278267 heartbeat IPC: 3.962 cumulative IPC: 3.965 (Simulation time: 00 hr 12 min 45 sec)
Heartbeat CPU 0 instructions: 360000001 cycles: 90802806 heartbeat IPC: 3.961 cumulative IPC: 3.965 (Simulation time: 00 hr 13 min 02 sec)
Heartbeat CPU 0 instructions: 370000002 cycles: 93326919 heartbeat IPC: 3.962 cumulative IPC: 3.965 (Simulation time: 00 hr 13 min 19 sec)
Heartbeat CPU 0 instructions: 380000000 cycles: 95850584 heartbeat IPC: 3.962 cumulative IPC: 3.965 (Simulation time: 00 hr 13 min 37 sec)
Heartbeat CPU 0 instructions: 390000000 cycles: 98373364 heartbeat IPC: 3.964 cumulative IPC: 3.964 (Simulation time: 00 hr 13 min 54 sec)
Heartbeat CPU 0 instructions: 400000003 cycles: 100895812 heartbeat IPC: 3.964 cumulative IPC: 3.964 (Simulation time: 00 hr 14 min 12 sec)
Heartbeat CPU 0 instructions: 410000002 cycles: 103418002 heartbeat IPC: 3.965 cumulative IPC: 3.964 (Simulation time: 00 hr 14 min 29 sec)
Heartbeat CPU 0 instructions: 420000004 cycles: 105940309 heartbeat IPC: 3.965 cumulative IPC: 3.964 (Simulation time: 00 hr 14 min 47 sec)
Heartbeat CPU 0 instructions: 430000001 cycles: 108462204 heartbeat IPC: 3.965 cumulative IPC: 3.965 (Simulation time: 00 hr 15 min 04 sec)
Heartbeat CPU 0 instructions: 440000003 cycles: 110982528 heartbeat IPC: 3.968 cumulative IPC: 3.965 (Simulation time: 00 hr 15 min 22 sec)
Heartbeat CPU 0 instructions: 450000001 cycles: 113502913 heartbeat IPC: 3.968 cumulative IPC: 3.965 (Simulation time: 00 hr 15 min 40 sec)
Heartbeat CPU 0 instructions: 460000001 cycles: 116023360 heartbeat IPC: 3.968 cumulative IPC: 3.965 (Simulation time: 00 hr 16 min 13 sec)
Heartbeat CPU 0 instructions: 470000003 cycles: 118530299 heartbeat IPC: 3.989 cumulative IPC: 3.965 (Simulation time: 00 hr 16 min 49 sec)
Heartbeat CPU 0 instructions: 480000002 cycles: 121048007 heartbeat IPC: 3.972 cumulative IPC: 3.965 (Simulation time: 00 hr 17 min 23 sec)
Heartbeat CPU 0 instructions: 490000001 cycles: 123571648 heartbeat IPC: 3.963 cumulative IPC: 3.965 (Simulation time: 00 hr 17 min 56 sec)
Heartbeat CPU 0 instructions: 500000003 cycles: 126094595 heartbeat IPC: 3.964 cumulative IPC: 3.965 (Simulation time: 00 hr 18 min 29 sec)
Heartbeat CPU 0 instructions: 510000003 cycles: 128616568 heartbeat IPC: 3.965 cumulative IPC: 3.965 (Simulation time: 00 hr 19 min 02 sec)
Heartbeat CPU 0 instructions: 520000001 cycles: 131138759 heartbeat IPC: 3.965 cumulative IPC: 3.965 (Simulation time: 00 hr 19 min 35 sec)
Heartbeat CPU 0 instructions: 530000001 cycles: 133653428 heartbeat IPC: 3.977 cumulative IPC: 3.965 (Simulation time: 00 hr 20 min 09 sec)
Heartbeat CPU 0 instructions: 540000003 cycles: 136167099 heartbeat IPC: 3.978 cumulative IPC: 3.966 (Simulation time: 00 hr 20 min 43 sec)
Heartbeat CPU 0 instructions: 550000003 cycles: 138680829 heartbeat IPC: 3.978 cumulative IPC: 3.966 (Simulation time: 00 hr 21 min 17 sec)
Heartbeat CPU 0 instructions: 560000003 cycles: 141194780 heartbeat IPC: 3.978 cumulative IPC: 3.966 (Simulation time: 00 hr 21 min 51 sec)
Heartbeat CPU 0 instructions: 570000003 cycles: 143708510 heartbeat IPC: 3.978 cumulative IPC: 3.966 (Simulation time: 00 hr 22 min 24 sec)
Heartbeat CPU 0 instructions: 580000003 cycles: 146222236 heartbeat IPC: 3.978 cumulative IPC: 3.967 (Simulation time: 00 hr 22 min 58 sec)
Heartbeat CPU 0 instructions: 590000001 cycles: 148735553 heartbeat IPC: 3.979 cumulative IPC: 3.967 (Simulation time: 00 hr 23 min 32 sec)
Heartbeat CPU 0 instructions: 600000001 cycles: 151248592 heartbeat IPC: 3.979 cumulative IPC: 3.967 (Simulation time: 00 hr 24 min 06 sec)
Heartbeat CPU 0 instructions: 610000001 cycles: 153761631 heartbeat IPC: 3.979 cumulative IPC: 3.967 (Simulation time: 00 hr 24 min 40 sec)
Heartbeat CPU 0 instructions: 620000001 cycles: 156274670 heartbeat IPC: 3.979 cumulative IPC: 3.967 (Simulation time: 00 hr 25 min 14 sec)
Heartbeat CPU 0 instructions: 630000001 cycles: 158787709 heartbeat IPC: 3.979 cumulative IPC: 3.968 (Simulation time: 00 hr 25 min 48 sec)
Heartbeat CPU 0 instructions: 640000002 cycles: 161302023 heartbeat IPC: 3.977 cumulative IPC: 3.968 (Simulation time: 00 hr 26 min 22 sec)
Heartbeat CPU 0 instructions: 650000003 cycles: 163823886 heartbeat IPC: 3.965 cumulative IPC: 3.968 (Simulation time: 00 hr 26 min 55 sec)
Heartbeat CPU 0 instructions: 660000003 cycles: 166346775 heartbeat IPC: 3.964 cumulative IPC: 3.968 (Simulation time: 00 hr 27 min 28 sec)
Heartbeat CPU 0 instructions: 670000003 cycles: 168865909 heartbeat IPC: 3.97 cumulative IPC: 3.968 (Simulation time: 00 hr 27 min 52 sec)
Heartbeat CPU 0 instructions: 680000003 cycles: 171389577 heartbeat IPC: 3.962 cumulative IPC: 3.968 (Simulation time: 00 hr 28 min 25 sec)
Heartbeat CPU 0 instructions: 690000001 cycles: 173913521 heartbeat IPC: 3.962 cumulative IPC: 3.967 (Simulation time: 00 hr 28 min 59 sec)
Heartbeat CPU 0 instructions: 700000003 cycles: 176437466 heartbeat IPC: 3.962 cumulative IPC: 3.967 (Simulation time: 00 hr 29 min 32 sec)
Heartbeat CPU 0 instructions: 710000000 cycles: 178961330 heartbeat IPC: 3.962 cumulative IPC: 3.967 (Simulation time: 00 hr 30 min 05 sec)
Heartbeat CPU 0 instructions: 720000001 cycles: 181483827 heartbeat IPC: 3.964 cumulative IPC: 3.967 (Simulation time: 00 hr 30 min 39 sec)
Heartbeat CPU 0 instructions: 730000003 cycles: 183988665 heartbeat IPC: 3.992 cumulative IPC: 3.968 (Simulation time: 00 hr 31 min 15 sec)
Heartbeat CPU 0 instructions: 740000000 cycles: 186509292 heartbeat IPC: 3.967 cumulative IPC: 3.968 (Simulation time: 00 hr 31 min 48 sec)
Heartbeat CPU 0 instructions: 750000001 cycles: 189033692 heartbeat IPC: 3.961 cumulative IPC: 3.968 (Simulation time: 00 hr 32 min 22 sec)
Heartbeat CPU 0 instructions: 760000001 cycles: 191557842 heartbeat IPC: 3.962 cumulative IPC: 3.967 (Simulation time: 00 hr 32 min 55 sec)
Heartbeat CPU 0 instructions: 770000000 cycles: 194082247 heartbeat IPC: 3.961 cumulative IPC: 3.967 (Simulation time: 00 hr 33 min 28 sec)
Heartbeat CPU 0 instructions: 780000001 cycles: 196605803 heartbeat IPC: 3.963 cumulative IPC: 3.967 (Simulation time: 00 hr 34 min 02 sec)
Heartbeat CPU 0 instructions: 790000000 cycles: 199129294 heartbeat IPC: 3.963 cumulative IPC: 3.967 (Simulation time: 00 hr 34 min 35 sec)
Heartbeat CPU 0 instructions: 800000003 cycles: 201650232 heartbeat IPC: 3.967 cumulative IPC: 3.967 (Simulation time: 00 hr 35 min 08 sec)
Heartbeat CPU 0 instructions: 810000001 cycles: 204168538 heartbeat IPC: 3.971 cumulative IPC: 3.967 (Simulation time: 00 hr 35 min 42 sec)
Heartbeat CPU 0 instructions: 820000000 cycles: 206686059 heartbeat IPC: 3.972 cumulative IPC: 3.967 (Simulation time: 00 hr 36 min 16 sec)
Heartbeat CPU 0 instructions: 830000001 cycles: 209206844 heartbeat IPC: 3.967 cumulative IPC: 3.967 (Simulation time: 00 hr 36 min 44 sec)
Heartbeat CPU 0 instructions: 840000000 cycles: 211727589 heartbeat IPC: 3.967 cumulative IPC: 3.967 (Simulation time: 00 hr 37 min 14 sec)
Heartbeat CPU 0 instructions: 850000001 cycles: 214248371 heartbeat IPC: 3.967 cumulative IPC: 3.967 (Simulation time: 00 hr 37 min 40 sec)
Heartbeat CPU 0 instructions: 860000000 cycles: 216769156 heartbeat IPC: 3.967 cumulative IPC: 3.967 (Simulation time: 00 hr 37 min 59 sec)
Heartbeat CPU 0 instructions: 870000001 cycles: 219289941 heartbeat IPC: 3.967 cumulative IPC: 3.967 (Simulation time: 00 hr 38 min 18 sec)
Heartbeat CPU 0 instructions: 880000002 cycles: 221810726 heartbeat IPC: 3.967 cumulative IPC: 3.967 (Simulation time: 00 hr 38 min 47 sec)
Heartbeat CPU 0 instructions: 890000001 cycles: 224331471 heartbeat IPC: 3.967 cumulative IPC: 3.967 (Simulation time: 00 hr 39 min 06 sec)
Heartbeat CPU 0 instructions: 900000001 cycles: 226852210 heartbeat IPC: 3.967 cumulative IPC: 3.967 (Simulation time: 00 hr 39 min 26 sec)
Heartbeat CPU 0 instructions: 910000003 cycles: 229372952 heartbeat IPC: 3.967 cumulative IPC: 3.967 (Simulation time: 00 hr 39 min 45 sec)
Heartbeat CPU 0 instructions: 920000003 cycles: 231893694 heartbeat IPC: 3.967 cumulative IPC: 3.967 (Simulation time: 00 hr 40 min 12 sec)
Heartbeat CPU 0 instructions: 930000001 cycles: 234409419 heartbeat IPC: 3.975 cumulative IPC: 3.967 (Simulation time: 00 hr 40 min 45 sec)
Heartbeat CPU 0 instructions: 940000000 cycles: 236930350 heartbeat IPC: 3.967 cumulative IPC: 3.967 (Simulation time: 00 hr 41 min 18 sec)
Heartbeat CPU 0 instructions: 950000000 cycles: 239450502 heartbeat IPC: 3.968 cumulative IPC: 3.967 (Simulation time: 00 hr 41 min 51 sec)
Heartbeat CPU 0 instructions: 960000000 cycles: 241971794 heartbeat IPC: 3.966 cumulative IPC: 3.967 (Simulation time: 00 hr 42 min 24 sec)
Heartbeat CPU 0 instructions: 970000001 cycles: 244495545 heartbeat IPC: 3.962 cumulative IPC: 3.967 (Simulation time: 00 hr 42 min 57 sec)
Heartbeat CPU 0 instructions: 980000002 cycles: 247019693 heartbeat IPC: 3.962 cumulative IPC: 3.967 (Simulation time: 00 hr 43 min 29 sec)
Heartbeat CPU 0 instructions: 990000001 cycles: 249544031 heartbeat IPC: 3.961 cumulative IPC: 3.967 (Simulation time: 00 hr 44 min 01 sec)
Heartbeat CPU 0 instructions: 1000000002 cycles: 252068301 heartbeat IPC: 3.962 cumulative IPC: 3.967 (Simulation time: 00 hr 44 min 34 sec)
Warmup finished CPU 0 instructions: 1000000002 cycles: 252068302 cumulative IPC: 3.967 (Simulation time: 00 hr 44 min 34 sec)
Warmup complete CPU 0 instructions: 1000000002 cycles: 252068302 cumulative IPC: 3.967 (Simulation time: 00 hr 44 min 34 sec)
Heartbeat CPU 0 instructions: 1010000000 cycles: 256347132 heartbeat IPC: 2.337 cumulative IPC: 2.337 (Simulation time: 00 hr 45 min 25 sec)
Heartbeat CPU 0 instructions: 1020000004 cycles: 261449384 heartbeat IPC: 1.96 cumulative IPC: 2.132 (Simulation time: 00 hr 46 min 27 sec)
Heartbeat CPU 0 instructions: 1030000003 cycles: 265031865 heartbeat IPC: 2.791 cumulative IPC: 2.314 (Simulation time: 00 hr 47 min 10 sec)
Heartbeat CPU 0 instructions: 1040000003 cycles: 268612428 heartbeat IPC: 2.793 cumulative IPC: 2.418 (Simulation time: 00 hr 47 min 53 sec)
Heartbeat CPU 0 instructions: 1050000003 cycles: 272194270 heartbeat IPC: 2.792 cumulative IPC: 2.484 (Simulation time: 00 hr 48 min 22 sec)
Heartbeat CPU 0 instructions: 1060000003 cycles: 275877436 heartbeat IPC: 2.715 cumulative IPC: 2.52 (Simulation time: 00 hr 48 min 54 sec)
Heartbeat CPU 0 instructions: 1070000000 cycles: 279521028 heartbeat IPC: 2.745 cumulative IPC: 2.55 (Simulation time: 00 hr 49 min 38 sec)
Heartbeat CPU 0 instructions: 1080000000 cycles: 283108952 heartbeat IPC: 2.787 cumulative IPC: 2.577 (Simulation time: 00 hr 50 min 22 sec)
Heartbeat CPU 0 instructions: 1090000000 cycles: 286665341 heartbeat IPC: 2.812 cumulative IPC: 2.601 (Simulation time: 00 hr 51 min 06 sec)
Heartbeat CPU 0 instructions: 1100000003 cycles: 290253826 heartbeat IPC: 2.787 cumulative IPC: 2.619 (Simulation time: 00 hr 51 min 50 sec)
Heartbeat CPU 0 instructions: 1110000003 cycles: 293875959 heartbeat IPC: 2.761 cumulative IPC: 2.631 (Simulation time: 00 hr 52 min 33 sec)
Heartbeat CPU 0 instructions: 1120000002 cycles: 297519226 heartbeat IPC: 2.745 cumulative IPC: 2.64 (Simulation time: 00 hr 53 min 16 sec)
Heartbeat CPU 0 instructions: 1130000002 cycles: 301071946 heartbeat IPC: 2.815 cumulative IPC: 2.653 (Simulation time: 00 hr 54 min 00 sec)
Heartbeat CPU 0 instructions: 1140000001 cycles: 304689259 heartbeat IPC: 2.764 cumulative IPC: 2.661 (Simulation time: 00 hr 54 min 42 sec)
Heartbeat CPU 0 instructions: 1150000000 cycles: 308328338 heartbeat IPC: 2.748 cumulative IPC: 2.666 (Simulation time: 00 hr 55 min 22 sec)
Heartbeat CPU 0 instructions: 1160000000 cycles: 311927023 heartbeat IPC: 2.779 cumulative IPC: 2.673 (Simulation time: 00 hr 55 min 46 sec)
Heartbeat CPU 0 instructions: 1170000001 cycles: 315566645 heartbeat IPC: 2.748 cumulative IPC: 2.677 (Simulation time: 00 hr 56 min 12 sec)
Heartbeat CPU 0 instructions: 1180000000 cycles: 319163965 heartbeat IPC: 2.78 cumulative IPC: 2.683 (Simulation time: 00 hr 56 min 37 sec)
Heartbeat CPU 0 instructions: 1190000000 cycles: 322801829 heartbeat IPC: 2.749 cumulative IPC: 2.686 (Simulation time: 00 hr 57 min 00 sec)
Heartbeat CPU 0 instructions: 1200000004 cycles: 326398542 heartbeat IPC: 2.78 cumulative IPC: 2.691 (Simulation time: 00 hr 57 min 27 sec)
Heartbeat CPU 0 instructions: 1210000001 cycles: 330018155 heartbeat IPC: 2.763 cumulative IPC: 2.694 (Simulation time: 00 hr 58 min 06 sec)
Heartbeat CPU 0 instructions: 1220000003 cycles: 333654310 heartbeat IPC: 2.75 cumulative IPC: 2.697 (Simulation time: 00 hr 58 min 41 sec)
Heartbeat CPU 0 instructions: 1230000001 cycles: 337250769 heartbeat IPC: 2.781 cumulative IPC: 2.7 (Simulation time: 00 hr 59 min 05 sec)
Heartbeat CPU 0 instructions: 1240000004 cycles: 340887369 heartbeat IPC: 2.75 cumulative IPC: 2.702 (Simulation time: 00 hr 59 min 29 sec)
Heartbeat CPU 0 instructions: 1250000004 cycles: 344440459 heartbeat IPC: 2.814 cumulative IPC: 2.706 (Simulation time: 00 hr 59 min 53 sec)
Heartbeat CPU 0 instructions: 1260000001 cycles: 348069620 heartbeat IPC: 2.755 cumulative IPC: 2.708 (Simulation time: 01 hr 00 min 33 sec)
Heartbeat CPU 0 instructions: 1270000002 cycles: 351709425 heartbeat IPC: 2.747 cumulative IPC: 2.71 (Simulation time: 01 hr 01 min 17 sec)
Heartbeat CPU 0 instructions: 1280000000 cycles: 355272345 heartbeat IPC: 2.807 cumulative IPC: 2.713 (Simulation time: 01 hr 01 min 56 sec)
Heartbeat CPU 0 instructions: 1290000002 cycles: 358910289 heartbeat IPC: 2.749 cumulative IPC: 2.714 (Simulation time: 01 hr 02 min 19 sec)
Heartbeat CPU 0 instructions: 1300000000 cycles: 362496719 heartbeat IPC: 2.788 cumulative IPC: 2.717 (Simulation time: 01 hr 02 min 43 sec)
Heartbeat CPU 0 instructions: 1310000003 cycles: 366151268 heartbeat IPC: 2.736 cumulative IPC: 2.717 (Simulation time: 01 hr 03 min 06 sec)
Heartbeat CPU 0 instructions: 1320000002 cycles: 369842262 heartbeat IPC: 2.709 cumulative IPC: 2.717 (Simulation time: 01 hr 03 min 30 sec)
Heartbeat CPU 0 instructions: 1330000002 cycles: 373425188 heartbeat IPC: 2.791 cumulative IPC: 2.719 (Simulation time: 01 hr 03 min 53 sec)
Heartbeat CPU 0 instructions: 1340000004 cycles: 377005552 heartbeat IPC: 2.793 cumulative IPC: 2.721 (Simulation time: 01 hr 04 min 16 sec)
Heartbeat CPU 0 instructions: 1350000002 cycles: 380588508 heartbeat IPC: 2.791 cumulative IPC: 2.723 (Simulation time: 01 hr 04 min 39 sec)
Heartbeat CPU 0 instructions: 1360000004 cycles: 385134906 heartbeat IPC: 2.2 cumulative IPC: 2.705 (Simulation time: 01 hr 05 min 09 sec)
Heartbeat CPU 0 instructions: 1370000004 cycles: 389904423 heartbeat IPC: 2.097 cumulative IPC: 2.684 (Simulation time: 01 hr 05 min 40 sec)
Heartbeat CPU 0 instructions: 1380000000 cycles: 393534668 heartbeat IPC: 2.755 cumulative IPC: 2.686 (Simulation time: 01 hr 06 min 03 sec)
Heartbeat CPU 0 instructions: 1390000002 cycles: 397164584 heartbeat IPC: 2.755 cumulative IPC: 2.688 (Simulation time: 01 hr 06 min 26 sec)
Heartbeat CPU 0 instructions: 1400000004 cycles: 400795187 heartbeat IPC: 2.754 cumulative IPC: 2.689 (Simulation time: 01 hr 06 min 49 sec)
Heartbeat CPU 0 instructions: 1410000004 cycles: 404437065 heartbeat IPC: 2.746 cumulative IPC: 2.691 (Simulation time: 01 hr 07 min 13 sec)
Heartbeat CPU 0 instructions: 1420000002 cycles: 408060298 heartbeat IPC: 2.76 cumulative IPC: 2.692 (Simulation time: 01 hr 07 min 36 sec)
Heartbeat CPU 0 instructions: 1430000000 cycles: 411682591 heartbeat IPC: 2.761 cumulative IPC: 2.694 (Simulation time: 01 hr 07 min 59 sec)
Heartbeat CPU 0 instructions: 1440000000 cycles: 415304227 heartbeat IPC: 2.761 cumulative IPC: 2.695 (Simulation time: 01 hr 08 min 21 sec)
Heartbeat CPU 0 instructions: 1450000002 cycles: 418908841 heartbeat IPC: 2.774 cumulative IPC: 2.697 (Simulation time: 01 hr 08 min 45 sec)
Heartbeat CPU 0 instructions: 1460000003 cycles: 422479748 heartbeat IPC: 2.8 cumulative IPC: 2.699 (Simulation time: 01 hr 09 min 10 sec)
Heartbeat CPU 0 instructions: 1470000000 cycles: 426055778 heartbeat IPC: 2.796 cumulative IPC: 2.701 (Simulation time: 01 hr 09 min 42 sec)
Heartbeat CPU 0 instructions: 1480000000 cycles: 429594085 heartbeat IPC: 2.826 cumulative IPC: 2.704 (Simulation time: 01 hr 10 min 26 sec)
Heartbeat CPU 0 instructions: 1490000002 cycles: 433215268 heartbeat IPC: 2.762 cumulative IPC: 2.705 (Simulation time: 01 hr 10 min 54 sec)
Heartbeat CPU 0 instructions: 1500000000 cycles: 436795081 heartbeat IPC: 2.793 cumulative IPC: 2.707 (Simulation time: 01 hr 11 min 18 sec)
Simulation finished CPU 0 instructions: 500000003 cycles: 184726781 cumulative IPC: 2.707 (Simulation time: 01 hr 11 min 18 sec)
Simulation complete CPU 0 instructions: 500000003 cycles: 184726781 cumulative IPC: 2.707 (Simulation time: 01 hr 11 min 18 sec)

ChampSim completed all CPUs

=== Simulation ===
CPU 0 runs traces/603.bwaves_s-1080B.champsimtrace.xz
Region of Interest Statistics

CPU 0 cumulative IPC: 2.707 instructions: 500000003 cycles: 184726781
CPU 0 Branch Prediction Accuracy: 94.13% MPKI: 8.519 Average ROB Occupancy at Mispredict: 37.99
Branch type MPKI
BRANCH_DIRECT_JUMP: 0.186
BRANCH_INDIRECT: 0
BRANCH_CONDITIONAL: 8.2
BRANCH_DIRECT_CALL: 0
BRANCH_INDIRECT_CALL: 0
BRANCH_RETURN: 0.131

LLC TOTAL        ACCESS:     328057 HIT:     156011 MISS:     172046
LLC LOAD         ACCESS:      15728 HIT:         11 MISS:      15717
LLC RFO          ACCESS:     156303 HIT:         15 MISS:     156288
LLC PREFETCH     ACCESS:          0 HIT:          0 MISS:          0
LLC WRITE        ACCESS:     156005 HIT:     155982 MISS:         23
LLC TRANSLATION  ACCESS:         21 HIT:          3 MISS:         18
LLC PREFETCH REQUESTED:          0 ISSUED:          0 USEFUL:          0 USELESS:          0
LLC AVERAGE MISS LATENCY: 407.8 cycles
cpu0_DTLB TOTAL        ACCESS:   81178042 HIT:   81154107 MISS:      23935
cpu0_DTLB LOAD         ACCESS:   81178042 HIT:   81154107 MISS:      23935
cpu0_DTLB RFO          ACCESS:          0 HIT:          0 MISS:          0
cpu0_DTLB PREFETCH     ACCESS:          0 HIT:          0 MISS:          0
cpu0_DTLB WRITE        ACCESS:          0 HIT:          0 MISS:          0
cpu0_DTLB TRANSLATION  ACCESS:          0 HIT:          0 MISS:          0
cpu0_DTLB PREFETCH REQUESTED:          0 ISSUED:          0 USEFUL:          0 USELESS:          0
cpu0_DTLB AVERAGE MISS LATENCY: 19.68 cycles
cpu0_ITLB TOTAL        ACCESS:    1899437 HIT:    1899437 MISS:          0
cpu0_ITLB LOAD         ACCESS:    1899437 HIT:    1899437 MISS:          0
cpu0_ITLB RFO          ACCESS:          0 HIT:          0 MISS:          0
cpu0_ITLB PREFETCH     ACCESS:          0 HIT:          0 MISS:          0
cpu0_ITLB WRITE        ACCESS:          0 HIT:          0 MISS:          0
cpu0_ITLB TRANSLATION  ACCESS:          0 HIT:          0 MISS:          0
cpu0_ITLB PREFETCH REQUESTED:          0 ISSUED:          0 USEFUL:          0 USELESS:          0
cpu0_ITLB AVERAGE MISS LATENCY: -nan cycles
cpu0_L1D TOTAL        ACCESS:  125465848 HIT:  124273572 MISS:    1192276
cpu0_L1D LOAD         ACCESS:  104338140 HIT:  104294823 MISS:      43317
cpu0_L1D RFO          ACCESS:          0 HIT:          0 MISS:          0
cpu0_L1D PREFETCH     ACCESS:          0 HIT:          0 MISS:          0
cpu0_L1D WRITE        ACCESS:   21125012 HIT:   19976318 MISS:    1148694
cpu0_L1D TRANSLATION  ACCESS:       2696 HIT:       2431 MISS:        265
cpu0_L1D PREFETCH REQUESTED:          0 ISSUED:          0 USEFUL:          0 USELESS:          0
cpu0_L1D AVERAGE MISS LATENCY: 59.09 cycles
cpu0_L1I TOTAL        ACCESS:    2199895 HIT:    2199895 MISS:          0
cpu0_L1I LOAD         ACCESS:    2199895 HIT:    2199895 MISS:          0
cpu0_L1I RFO          ACCESS:          0 HIT:          0 MISS:          0
cpu0_L1I PREFETCH     ACCESS:          0 HIT:          0 MISS:          0
cpu0_L1I WRITE        ACCESS:          0 HIT:          0 MISS:          0
cpu0_L1I TRANSLATION  ACCESS:          0 HIT:          0 MISS:          0
cpu0_L1I PREFETCH REQUESTED:          0 ISSUED:          0 USEFUL:          0 USELESS:          0
cpu0_L1I AVERAGE MISS LATENCY: -nan cycles
cpu0_L2C TOTAL        ACCESS:     331671 HIT:     159598 MISS:     172073
cpu0_L2C LOAD         ACCESS:      16947 HIT:       1219 MISS:      15728
cpu0_L2C RFO          ACCESS:     157523 HIT:       1220 MISS:     156303
cpu0_L2C PREFETCH     ACCESS:          0 HIT:          0 MISS:          0
cpu0_L2C WRITE        ACCESS:     156936 HIT:     156915 MISS:         21
cpu0_L2C TRANSLATION  ACCESS:        265 HIT:        244 MISS:         21
cpu0_L2C PREFETCH REQUESTED:          0 ISSUED:          0 USEFUL:          0 USELESS:          0
cpu0_L2C AVERAGE MISS LATENCY: 428.7 cycles
cpu0_STLB TOTAL        ACCESS:       2816 HIT:        125 MISS:       2691
cpu0_STLB LOAD         ACCESS:       2816 HIT:        125 MISS:       2691
cpu0_STLB RFO          ACCESS:          0 HIT:          0 MISS:          0
cpu0_STLB PREFETCH     ACCESS:          0 HIT:          0 MISS:          0
cpu0_STLB WRITE        ACCESS:          0 HIT:          0 MISS:          0
cpu0_STLB TRANSLATION  ACCESS:          0 HIT:          0 MISS:          0
cpu0_STLB PREFETCH REQUESTED:          0 ISSUED:          0 USEFUL:          0 USELESS:          0
cpu0_STLB AVERAGE MISS LATENCY: 209.9 cycles

DRAM Statistics

Channel 0 RQ ROW_BUFFER_HIT:      59569
  ROW_BUFFER_MISS:     112454
 AVG DBUS CONGESTED CYCLE: 3.932
WQ ROW_BUFFER_HIT: Channel 0 
  ROW_BUFFER_MISS:      54736
  FULL:     101256
