WARNING: physical memory size is smaller than virtual memory size.

*** ChampSim Multicore Out-of-Order Simulator ***
Warmup Instructions: 1000000000
Simulation Instructions: 500000000
Number of CPUs: 1
Page size: 4096

Off-chip DRAM Size: 4 GiB Channels: 1 Width: 64-bit Data Race: 3200 MT/s
Heartbeat CPU 0 instructions: 10000001 cycles: 2559476 heartbeat IPC: 3.907 cumulative IPC: 3.907 (Simulation time: 00 hr 00 min 18 sec)
Heartbeat CPU 0 instructions: 20000004 cycles: 5118891 heartbeat IPC: 3.907 cumulative IPC: 3.907 (Simulation time: 00 hr 00 min 37 sec)
Heartbeat CPU 0 instructions: 30000000 cycles: 7677948 heartbeat IPC: 3.908 cumulative IPC: 3.907 (Simulation time: 00 hr 00 min 56 sec)
Heartbeat CPU 0 instructions: 40000001 cycles: 10237443 heartbeat IPC: 3.907 cumulative IPC: 3.907 (Simulation time: 00 hr 01 min 15 sec)
Heartbeat CPU 0 instructions: 50000004 cycles: 12796758 heartbeat IPC: 3.907 cumulative IPC: 3.907 (Simulation time: 00 hr 01 min 34 sec)
Heartbeat CPU 0 instructions: 60000002 cycles: 15356094 heartbeat IPC: 3.907 cumulative IPC: 3.907 (Simulation time: 00 hr 01 min 53 sec)
Heartbeat CPU 0 instructions: 70000003 cycles: 17915399 heartbeat IPC: 3.907 cumulative IPC: 3.907 (Simulation time: 00 hr 02 min 12 sec)
Heartbeat CPU 0 instructions: 80000002 cycles: 20474872 heartbeat IPC: 3.907 cumulative IPC: 3.907 (Simulation time: 00 hr 02 min 31 sec)
Heartbeat CPU 0 instructions: 90000002 cycles: 23034141 heartbeat IPC: 3.907 cumulative IPC: 3.907 (Simulation time: 00 hr 02 min 50 sec)
Heartbeat CPU 0 instructions: 100000001 cycles: 25593723 heartbeat IPC: 3.907 cumulative IPC: 3.907 (Simulation time: 00 hr 03 min 09 sec)
Heartbeat CPU 0 instructions: 110000000 cycles: 28152550 heartbeat IPC: 3.908 cumulative IPC: 3.907 (Simulation time: 00 hr 03 min 28 sec)
Heartbeat CPU 0 instructions: 120000002 cycles: 30712178 heartbeat IPC: 3.907 cumulative IPC: 3.907 (Simulation time: 00 hr 03 min 47 sec)
Heartbeat CPU 0 instructions: 130000002 cycles: 33271284 heartbeat IPC: 3.908 cumulative IPC: 3.907 (Simulation time: 00 hr 04 min 06 sec)
Heartbeat CPU 0 instructions: 140000001 cycles: 35830775 heartbeat IPC: 3.907 cumulative IPC: 3.907 (Simulation time: 00 hr 04 min 26 sec)
Heartbeat CPU 0 instructions: 150000000 cycles: 38390134 heartbeat IPC: 3.907 cumulative IPC: 3.907 (Simulation time: 00 hr 04 min 45 sec)
Heartbeat CPU 0 instructions: 160000001 cycles: 40949089 heartbeat IPC: 3.908 cumulative IPC: 3.907 (Simulation time: 00 hr 05 min 04 sec)
Heartbeat CPU 0 instructions: 170000002 cycles: 43508635 heartbeat IPC: 3.907 cumulative IPC: 3.907 (Simulation time: 00 hr 05 min 23 sec)
Heartbeat CPU 0 instructions: 180000002 cycles: 46067749 heartbeat IPC: 3.908 cumulative IPC: 3.907 (Simulation time: 00 hr 05 min 42 sec)
Heartbeat CPU 0 instructions: 190000001 cycles: 48627368 heartbeat IPC: 3.907 cumulative IPC: 3.907 (Simulation time: 00 hr 06 min 00 sec)
Heartbeat CPU 0 instructions: 200000004 cycles: 51186283 heartbeat IPC: 3.908 cumulative IPC: 3.907 (Simulation time: 00 hr 06 min 19 sec)
Heartbeat CPU 0 instructions: 210000001 cycles: 53745513 heartbeat IPC: 3.907 cumulative IPC: 3.907 (Simulation time: 00 hr 06 min 38 sec)
Heartbeat CPU 0 instructions: 220000000 cycles: 56304624 heartbeat IPC: 3.908 cumulative IPC: 3.907 (Simulation time: 00 hr 06 min 57 sec)
Heartbeat CPU 0 instructions: 230000003 cycles: 58864130 heartbeat IPC: 3.907 cumulative IPC: 3.907 (Simulation time: 00 hr 07 min 16 sec)
Heartbeat CPU 0 instructions: 240000003 cycles: 61423010 heartbeat IPC: 3.908 cumulative IPC: 3.907 (Simulation time: 00 hr 07 min 35 sec)
Heartbeat CPU 0 instructions: 250000003 cycles: 63982555 heartbeat IPC: 3.907 cumulative IPC: 3.907 (Simulation time: 00 hr 07 min 54 sec)
Heartbeat CPU 0 instructions: 260000003 cycles: 66541513 heartbeat IPC: 3.908 cumulative IPC: 3.907 (Simulation time: 00 hr 08 min 12 sec)
Heartbeat CPU 0 instructions: 270000003 cycles: 69100355 heartbeat IPC: 3.908 cumulative IPC: 3.907 (Simulation time: 00 hr 08 min 31 sec)
Heartbeat CPU 0 instructions: 280000002 cycles: 71659321 heartbeat IPC: 3.908 cumulative IPC: 3.907 (Simulation time: 00 hr 08 min 50 sec)
Heartbeat CPU 0 instructions: 290000003 cycles: 74219152 heartbeat IPC: 3.907 cumulative IPC: 3.907 (Simulation time: 00 hr 09 min 09 sec)
Heartbeat CPU 0 instructions: 300000003 cycles: 76778384 heartbeat IPC: 3.907 cumulative IPC: 3.907 (Simulation time: 00 hr 09 min 28 sec)
Heartbeat CPU 0 instructions: 310000002 cycles: 79337540 heartbeat IPC: 3.908 cumulative IPC: 3.907 (Simulation time: 00 hr 09 min 46 sec)
Heartbeat CPU 0 instructions: 320000003 cycles: 81896695 heartbeat IPC: 3.908 cumulative IPC: 3.907 (Simulation time: 00 hr 10 min 05 sec)
Heartbeat CPU 0 instructions: 330000002 cycles: 84455938 heartbeat IPC: 3.907 cumulative IPC: 3.907 (Simulation time: 00 hr 10 min 24 sec)
Heartbeat CPU 0 instructions: 340000003 cycles: 87015579 heartbeat IPC: 3.907 cumulative IPC: 3.907 (Simulation time: 00 hr 10 min 43 sec)
Heartbeat CPU 0 instructions: 350000003 cycles: 89574564 heartbeat IPC: 3.908 cumulative IPC: 3.907 (Simulation time: 00 hr 11 min 02 sec)
Heartbeat CPU 0 instructions: 360000004 cycles: 92133618 heartbeat IPC: 3.908 cumulative IPC: 3.907 (Simulation time: 00 hr 11 min 21 sec)
Heartbeat CPU 0 instructions: 370000001 cycles: 94693161 heartbeat IPC: 3.907 cumulative IPC: 3.907 (Simulation time: 00 hr 11 min 40 sec)
Heartbeat CPU 0 instructions: 380000002 cycles: 97252127 heartbeat IPC: 3.908 cumulative IPC: 3.907 (Simulation time: 00 hr 11 min 59 sec)
Heartbeat CPU 0 instructions: 390000000 cycles: 99811263 heartbeat IPC: 3.908 cumulative IPC: 3.907 (Simulation time: 00 hr 12 min 18 sec)
Heartbeat CPU 0 instructions: 400000000 cycles: 102370555 heartbeat IPC: 3.907 cumulative IPC: 3.907 (Simulation time: 00 hr 12 min 36 sec)
Heartbeat CPU 0 instructions: 410000001 cycles: 104929843 heartbeat IPC: 3.907 cumulative IPC: 3.907 (Simulation time: 00 hr 12 min 56 sec)
Heartbeat CPU 0 instructions: 420000001 cycles: 107489200 heartbeat IPC: 3.907 cumulative IPC: 3.907 (Simulation time: 00 hr 13 min 15 sec)
Heartbeat CPU 0 instructions: 430000001 cycles: 110047650 heartbeat IPC: 3.909 cumulative IPC: 3.907 (Simulation time: 00 hr 13 min 34 sec)
Heartbeat CPU 0 instructions: 440000001 cycles: 112607587 heartbeat IPC: 3.906 cumulative IPC: 3.907 (Simulation time: 00 hr 13 min 53 sec)
Heartbeat CPU 0 instructions: 450000004 cycles: 115166676 heartbeat IPC: 3.908 cumulative IPC: 3.907 (Simulation time: 00 hr 14 min 11 sec)
Heartbeat CPU 0 instructions: 460000001 cycles: 117726158 heartbeat IPC: 3.907 cumulative IPC: 3.907 (Simulation time: 00 hr 14 min 30 sec)
Heartbeat CPU 0 instructions: 470000000 cycles: 120285130 heartbeat IPC: 3.908 cumulative IPC: 3.907 (Simulation time: 00 hr 14 min 49 sec)
Heartbeat CPU 0 instructions: 480000000 cycles: 122844185 heartbeat IPC: 3.908 cumulative IPC: 3.907 (Simulation time: 00 hr 15 min 08 sec)
Heartbeat CPU 0 instructions: 490000001 cycles: 125403359 heartbeat IPC: 3.908 cumulative IPC: 3.907 (Simulation time: 00 hr 15 min 27 sec)
Heartbeat CPU 0 instructions: 500000004 cycles: 127962737 heartbeat IPC: 3.907 cumulative IPC: 3.907 (Simulation time: 00 hr 15 min 46 sec)
Heartbeat CPU 0 instructions: 510000001 cycles: 130522060 heartbeat IPC: 3.907 cumulative IPC: 3.907 (Simulation time: 00 hr 16 min 05 sec)
Heartbeat CPU 0 instructions: 520000003 cycles: 133081326 heartbeat IPC: 3.907 cumulative IPC: 3.907 (Simulation time: 00 hr 16 min 23 sec)
Heartbeat CPU 0 instructions: 530000000 cycles: 135640258 heartbeat IPC: 3.908 cumulative IPC: 3.907 (Simulation time: 00 hr 16 min 42 sec)
Heartbeat CPU 0 instructions: 540000003 cycles: 138199404 heartbeat IPC: 3.908 cumulative IPC: 3.907 (Simulation time: 00 hr 17 min 01 sec)
Heartbeat CPU 0 instructions: 550000000 cycles: 140758543 heartbeat IPC: 3.908 cumulative IPC: 3.907 (Simulation time: 00 hr 17 min 20 sec)
Heartbeat CPU 0 instructions: 560000000 cycles: 143317792 heartbeat IPC: 3.907 cumulative IPC: 3.907 (Simulation time: 00 hr 17 min 39 sec)
Heartbeat CPU 0 instructions: 570000003 cycles: 145877178 heartbeat IPC: 3.907 cumulative IPC: 3.907 (Simulation time: 00 hr 17 min 57 sec)
Heartbeat CPU 0 instructions: 580000003 cycles: 148436244 heartbeat IPC: 3.908 cumulative IPC: 3.907 (Simulation time: 00 hr 18 min 16 sec)
Heartbeat CPU 0 instructions: 590000002 cycles: 150995324 heartbeat IPC: 3.908 cumulative IPC: 3.907 (Simulation time: 00 hr 18 min 35 sec)
Heartbeat CPU 0 instructions: 600000003 cycles: 153554921 heartbeat IPC: 3.907 cumulative IPC: 3.907 (Simulation time: 00 hr 18 min 54 sec)
Heartbeat CPU 0 instructions: 610000003 cycles: 156114039 heartbeat IPC: 3.908 cumulative IPC: 3.907 (Simulation time: 00 hr 19 min 13 sec)
Heartbeat CPU 0 instructions: 620000001 cycles: 158672785 heartbeat IPC: 3.908 cumulative IPC: 3.907 (Simulation time: 00 hr 19 min 32 sec)
Heartbeat CPU 0 instructions: 630000002 cycles: 161232679 heartbeat IPC: 3.906 cumulative IPC: 3.907 (Simulation time: 00 hr 19 min 51 sec)
Heartbeat CPU 0 instructions: 640000001 cycles: 163791461 heartbeat IPC: 3.908 cumulative IPC: 3.907 (Simulation time: 00 hr 20 min 09 sec)
Heartbeat CPU 0 instructions: 650000003 cycles: 166350619 heartbeat IPC: 3.908 cumulative IPC: 3.907 (Simulation time: 00 hr 20 min 28 sec)
Heartbeat CPU 0 instructions: 660000001 cycles: 168910286 heartbeat IPC: 3.907 cumulative IPC: 3.907 (Simulation time: 00 hr 20 min 47 sec)
Heartbeat CPU 0 instructions: 670000001 cycles: 171469496 heartbeat IPC: 3.907 cumulative IPC: 3.907 (Simulation time: 00 hr 21 min 06 sec)
Heartbeat CPU 0 instructions: 680000002 cycles: 174028510 heartbeat IPC: 3.908 cumulative IPC: 3.907 (Simulation time: 00 hr 21 min 25 sec)
Heartbeat CPU 0 instructions: 690000003 cycles: 176588115 heartbeat IPC: 3.907 cumulative IPC: 3.907 (Simulation time: 00 hr 21 min 44 sec)
Heartbeat CPU 0 instructions: 700000000 cycles: 179147134 heartbeat IPC: 3.908 cumulative IPC: 3.907 (Simulation time: 00 hr 22 min 02 sec)
Heartbeat CPU 0 instructions: 710000003 cycles: 181706727 heartbeat IPC: 3.907 cumulative IPC: 3.907 (Simulation time: 00 hr 22 min 21 sec)
Heartbeat CPU 0 instructions: 720000002 cycles: 184266106 heartbeat IPC: 3.907 cumulative IPC: 3.907 (Simulation time: 00 hr 22 min 40 sec)
Heartbeat CPU 0 instructions: 730000001 cycles: 186825630 heartbeat IPC: 3.907 cumulative IPC: 3.907 (Simulation time: 00 hr 22 min 59 sec)
Heartbeat CPU 0 instructions: 740000003 cycles: 189385271 heartbeat IPC: 3.907 cumulative IPC: 3.907 (Simulation time: 00 hr 23 min 17 sec)
Heartbeat CPU 0 instructions: 750000000 cycles: 191944396 heartbeat IPC: 3.908 cumulative IPC: 3.907 (Simulation time: 00 hr 23 min 36 sec)
Heartbeat CPU 0 instructions: 760000001 cycles: 194503548 heartbeat IPC: 3.908 cumulative IPC: 3.907 (Simulation time: 00 hr 23 min 55 sec)
Heartbeat CPU 0 instructions: 770000004 cycles: 197062465 heartbeat IPC: 3.908 cumulative IPC: 3.907 (Simulation time: 00 hr 24 min 14 sec)
Heartbeat CPU 0 instructions: 780000000 cycles: 199621672 heartbeat IPC: 3.907 cumulative IPC: 3.907 (Simulation time: 00 hr 24 min 33 sec)
Heartbeat CPU 0 instructions: 790000001 cycles: 202180699 heartbeat IPC: 3.908 cumulative IPC: 3.907 (Simulation time: 00 hr 24 min 51 sec)
Heartbeat CPU 0 instructions: 800000000 cycles: 204740104 heartbeat IPC: 3.907 cumulative IPC: 3.907 (Simulation time: 00 hr 25 min 10 sec)
Heartbeat CPU 0 instructions: 810000003 cycles: 207299413 heartbeat IPC: 3.907 cumulative IPC: 3.907 (Simulation time: 00 hr 25 min 29 sec)
Heartbeat CPU 0 instructions: 820000003 cycles: 209858633 heartbeat IPC: 3.907 cumulative IPC: 3.907 (Simulation time: 00 hr 25 min 48 sec)
Heartbeat CPU 0 instructions: 830000003 cycles: 212417579 heartbeat IPC: 3.908 cumulative IPC: 3.907 (Simulation time: 00 hr 26 min 07 sec)
Heartbeat CPU 0 instructions: 840000003 cycles: 214976935 heartbeat IPC: 3.907 cumulative IPC: 3.907 (Simulation time: 00 hr 26 min 25 sec)
Heartbeat CPU 0 instructions: 850000004 cycles: 217535777 heartbeat IPC: 3.908 cumulative IPC: 3.907 (Simulation time: 00 hr 26 min 44 sec)
Heartbeat CPU 0 instructions: 860000001 cycles: 220094903 heartbeat IPC: 3.908 cumulative IPC: 3.907 (Simulation time: 00 hr 27 min 03 sec)
Heartbeat CPU 0 instructions: 870000002 cycles: 222653773 heartbeat IPC: 3.908 cumulative IPC: 3.907 (Simulation time: 00 hr 27 min 22 sec)
Heartbeat CPU 0 instructions: 880000002 cycles: 225213365 heartbeat IPC: 3.907 cumulative IPC: 3.907 (Simulation time: 00 hr 27 min 41 sec)
Heartbeat CPU 0 instructions: 890000003 cycles: 227772389 heartbeat IPC: 3.908 cumulative IPC: 3.907 (Simulation time: 00 hr 28 min 00 sec)
Heartbeat CPU 0 instructions: 900000003 cycles: 230331309 heartbeat IPC: 3.908 cumulative IPC: 3.907 (Simulation time: 00 hr 28 min 19 sec)
Heartbeat CPU 0 instructions: 910000002 cycles: 232890704 heartbeat IPC: 3.907 cumulative IPC: 3.907 (Simulation time: 00 hr 28 min 38 sec)
Heartbeat CPU 0 instructions: 920000003 cycles: 235449850 heartbeat IPC: 3.908 cumulative IPC: 3.907 (Simulation time: 00 hr 28 min 57 sec)
Heartbeat CPU 0 instructions: 930000000 cycles: 238008973 heartbeat IPC: 3.908 cumulative IPC: 3.907 (Simulation time: 00 hr 29 min 16 sec)
Heartbeat CPU 0 instructions: 940000004 cycles: 240568105 heartbeat IPC: 3.908 cumulative IPC: 3.907 (Simulation time: 00 hr 29 min 35 sec)
Heartbeat CPU 0 instructions: 950000002 cycles: 243127416 heartbeat IPC: 3.907 cumulative IPC: 3.907 (Simulation time: 00 hr 29 min 53 sec)
Heartbeat CPU 0 instructions: 960000001 cycles: 245686714 heartbeat IPC: 3.907 cumulative IPC: 3.907 (Simulation time: 00 hr 30 min 12 sec)
Heartbeat CPU 0 instructions: 970000001 cycles: 248246317 heartbeat IPC: 3.907 cumulative IPC: 3.907 (Simulation time: 00 hr 30 min 31 sec)
Heartbeat CPU 0 instructions: 980000001 cycles: 250805581 heartbeat IPC: 3.907 cumulative IPC: 3.907 (Simulation time: 00 hr 30 min 50 sec)
Heartbeat CPU 0 instructions: 990000004 cycles: 253365247 heartbeat IPC: 3.907 cumulative IPC: 3.907 (Simulation time: 00 hr 31 min 09 sec)
Heartbeat CPU 0 instructions: 1000000000 cycles: 255923787 heartbeat IPC: 3.908 cumulative IPC: 3.907 (Simulation time: 00 hr 31 min 28 sec)
Warmup finished CPU 0 instructions: 1000000000 cycles: 255923788 cumulative IPC: 3.907 (Simulation time: 00 hr 31 min 28 sec)
Warmup complete CPU 0 instructions: 1000000000 cycles: 255923788 cumulative IPC: 3.907 (Simulation time: 00 hr 31 min 28 sec)
Heartbeat CPU 0 instructions: 1010000004 cycles: 260276222 heartbeat IPC: 2.298 cumulative IPC: 2.298 (Simulation time: 00 hr 31 min 57 sec)
Heartbeat CPU 0 instructions: 1020000001 cycles: 264532275 heartbeat IPC: 2.35 cumulative IPC: 2.323 (Simulation time: 00 hr 32 min 27 sec)
Heartbeat CPU 0 instructions: 1030000004 cycles: 268880119 heartbeat IPC: 2.3 cumulative IPC: 2.315 (Simulation time: 00 hr 32 min 58 sec)
Heartbeat CPU 0 instructions: 1040000000 cycles: 273231202 heartbeat IPC: 2.298 cumulative IPC: 2.311 (Simulation time: 00 hr 33 min 28 sec)
Heartbeat CPU 0 instructions: 1050000000 cycles: 277532709 heartbeat IPC: 2.325 cumulative IPC: 2.314 (Simulation time: 00 hr 33 min 58 sec)
Heartbeat CPU 0 instructions: 1060000000 cycles: 281882495 heartbeat IPC: 2.299 cumulative IPC: 2.311 (Simulation time: 00 hr 34 min 28 sec)
Heartbeat CPU 0 instructions: 1070000003 cycles: 286192500 heartbeat IPC: 2.32 cumulative IPC: 2.313 (Simulation time: 00 hr 34 min 58 sec)
Heartbeat CPU 0 instructions: 1080000002 cycles: 290529010 heartbeat IPC: 2.306 cumulative IPC: 2.312 (Simulation time: 00 hr 35 min 27 sec)
Heartbeat CPU 0 instructions: 1090000002 cycles: 294859173 heartbeat IPC: 2.309 cumulative IPC: 2.312 (Simulation time: 00 hr 35 min 56 sec)
Heartbeat CPU 0 instructions: 1100000001 cycles: 299182012 heartbeat IPC: 2.313 cumulative IPC: 2.312 (Simulation time: 00 hr 36 min 26 sec)
Heartbeat CPU 0 instructions: 1110000003 cycles: 303504757 heartbeat IPC: 2.313 cumulative IPC: 2.312 (Simulation time: 00 hr 36 min 55 sec)
Heartbeat CPU 0 instructions: 1120000001 cycles: 308089628 heartbeat IPC: 2.181 cumulative IPC: 2.3 (Simulation time: 00 hr 37 min 26 sec)
Heartbeat CPU 0 instructions: 1130000000 cycles: 312396444 heartbeat IPC: 2.322 cumulative IPC: 2.302 (Simulation time: 00 hr 37 min 56 sec)
Heartbeat CPU 0 instructions: 1140000004 cycles: 316725315 heartbeat IPC: 2.31 cumulative IPC: 2.303 (Simulation time: 00 hr 38 min 25 sec)
Heartbeat CPU 0 instructions: 1150000001 cycles: 321013807 heartbeat IPC: 2.332 cumulative IPC: 2.305 (Simulation time: 00 hr 38 min 55 sec)
Heartbeat CPU 0 instructions: 1160000004 cycles: 325344766 heartbeat IPC: 2.309 cumulative IPC: 2.305 (Simulation time: 00 hr 39 min 24 sec)
Heartbeat CPU 0 instructions: 1170000001 cycles: 329681922 heartbeat IPC: 2.306 cumulative IPC: 2.305 (Simulation time: 00 hr 39 min 53 sec)
Heartbeat CPU 0 instructions: 1180000003 cycles: 333997319 heartbeat IPC: 2.317 cumulative IPC: 2.306 (Simulation time: 00 hr 40 min 23 sec)
Heartbeat CPU 0 instructions: 1190000000 cycles: 338314738 heartbeat IPC: 2.316 cumulative IPC: 2.306 (Simulation time: 00 hr 40 min 52 sec)
Heartbeat CPU 0 instructions: 1200000001 cycles: 342624364 heartbeat IPC: 2.32 cumulative IPC: 2.307 (Simulation time: 00 hr 41 min 21 sec)
Heartbeat CPU 0 instructions: 1210000002 cycles: 346955422 heartbeat IPC: 2.309 cumulative IPC: 2.307 (Simulation time: 00 hr 41 min 51 sec)
Heartbeat CPU 0 instructions: 1220000000 cycles: 351293334 heartbeat IPC: 2.305 cumulative IPC: 2.307 (Simulation time: 00 hr 42 min 20 sec)
Heartbeat CPU 0 instructions: 1230000003 cycles: 355632654 heartbeat IPC: 2.305 cumulative IPC: 2.307 (Simulation time: 00 hr 42 min 50 sec)
Heartbeat CPU 0 instructions: 1240000003 cycles: 359977797 heartbeat IPC: 2.301 cumulative IPC: 2.306 (Simulation time: 00 hr 43 min 19 sec)
Heartbeat CPU 0 instructions: 1250000002 cycles: 364337626 heartbeat IPC: 2.294 cumulative IPC: 2.306 (Simulation time: 00 hr 43 min 49 sec)
Heartbeat CPU 0 instructions: 1260000004 cycles: 368686605 heartbeat IPC: 2.299 cumulative IPC: 2.306 (Simulation time: 00 hr 44 min 18 sec)
Heartbeat CPU 0 instructions: 1270000001 cycles: 373276186 heartbeat IPC: 2.179 cumulative IPC: 2.301 (Simulation time: 00 hr 44 min 48 sec)
Heartbeat CPU 0 instructions: 1280000001 cycles: 377636751 heartbeat IPC: 2.293 cumulative IPC: 2.3 (Simulation time: 00 hr 45 min 18 sec)
Heartbeat CPU 0 instructions: 1290000002 cycles: 381992135 heartbeat IPC: 2.296 cumulative IPC: 2.3 (Simulation time: 00 hr 45 min 47 sec)
Heartbeat CPU 0 instructions: 1300000002 cycles: 386278010 heartbeat IPC: 2.333 cumulative IPC: 2.301 (Simulation time: 00 hr 46 min 17 sec)
Heartbeat CPU 0 instructions: 1310000002 cycles: 390594757 heartbeat IPC: 2.317 cumulative IPC: 2.302 (Simulation time: 00 hr 46 min 46 sec)
Heartbeat CPU 0 instructions: 1320000004 cycles: 394919743 heartbeat IPC: 2.312 cumulative IPC: 2.302 (Simulation time: 00 hr 47 min 15 sec)
Heartbeat CPU 0 instructions: 1330000000 cycles: 399225914 heartbeat IPC: 2.322 cumulative IPC: 2.303 (Simulation time: 00 hr 47 min 44 sec)
Heartbeat CPU 0 instructions: 1340000003 cycles: 403544087 heartbeat IPC: 2.316 cumulative IPC: 2.303 (Simulation time: 00 hr 48 min 13 sec)
Heartbeat CPU 0 instructions: 1350000002 cycles: 407847263 heartbeat IPC: 2.324 cumulative IPC: 2.304 (Simulation time: 00 hr 48 min 44 sec)
Heartbeat CPU 0 instructions: 1360000000 cycles: 412149512 heartbeat IPC: 2.324 cumulative IPC: 2.304 (Simulation time: 00 hr 49 min 13 sec)
Heartbeat CPU 0 instructions: 1370000002 cycles: 416443030 heartbeat IPC: 2.329 cumulative IPC: 2.305 (Simulation time: 00 hr 49 min 42 sec)
Heartbeat CPU 0 instructions: 1380000001 cycles: 420788177 heartbeat IPC: 2.301 cumulative IPC: 2.305 (Simulation time: 00 hr 50 min 12 sec)
Heartbeat CPU 0 instructions: 1390000003 cycles: 425119748 heartbeat IPC: 2.309 cumulative IPC: 2.305 (Simulation time: 00 hr 50 min 41 sec)
Heartbeat CPU 0 instructions: 1400000001 cycles: 429430508 heartbeat IPC: 2.32 cumulative IPC: 2.305 (Simulation time: 00 hr 51 min 10 sec)
Heartbeat CPU 0 instructions: 1410000001 cycles: 433748719 heartbeat IPC: 2.316 cumulative IPC: 2.306 (Simulation time: 00 hr 51 min 40 sec)
Heartbeat CPU 0 instructions: 1420000000 cycles: 438318704 heartbeat IPC: 2.188 cumulative IPC: 2.303 (Simulation time: 00 hr 52 min 10 sec)
Heartbeat CPU 0 instructions: 1430000002 cycles: 442617523 heartbeat IPC: 2.326 cumulative IPC: 2.303 (Simulation time: 00 hr 52 min 39 sec)
Heartbeat CPU 0 instructions: 1440000003 cycles: 446941298 heartbeat IPC: 2.313 cumulative IPC: 2.303 (Simulation time: 00 hr 53 min 08 sec)
Heartbeat CPU 0 instructions: 1450000001 cycles: 451261721 heartbeat IPC: 2.315 cumulative IPC: 2.304 (Simulation time: 00 hr 53 min 38 sec)
Heartbeat CPU 0 instructions: 1460000002 cycles: 455582559 heartbeat IPC: 2.314 cumulative IPC: 2.304 (Simulation time: 00 hr 54 min 07 sec)
Heartbeat CPU 0 instructions: 1470000001 cycles: 459860821 heartbeat IPC: 2.337 cumulative IPC: 2.305 (Simulation time: 00 hr 54 min 37 sec)
Heartbeat CPU 0 instructions: 1480000003 cycles: 464201832 heartbeat IPC: 2.304 cumulative IPC: 2.305 (Simulation time: 00 hr 55 min 06 sec)
Heartbeat CPU 0 instructions: 1490000002 cycles: 468485365 heartbeat IPC: 2.335 cumulative IPC: 2.305 (Simulation time: 00 hr 55 min 36 sec)
Heartbeat CPU 0 instructions: 1500000000 cycles: 472841877 heartbeat IPC: 2.295 cumulative IPC: 2.305 (Simulation time: 00 hr 56 min 07 sec)
Simulation finished CPU 0 instructions: 500000000 cycles: 216918090 cumulative IPC: 2.305 (Simulation time: 00 hr 56 min 07 sec)
Simulation complete CPU 0 instructions: 500000000 cycles: 216918090 cumulative IPC: 2.305 (Simulation time: 00 hr 56 min 07 sec)

ChampSim completed all CPUs

=== Simulation ===
CPU 0 runs traces/607.cactuBSSN_s-3477B.champsimtrace.xz
Region of Interest Statistics

CPU 0 cumulative IPC: 2.305 instructions: 500000000 cycles: 216918090
CPU 0 Branch Prediction Accuracy: 91.81% MPKI: 0.726 Average ROB Occupancy at Mispredict: 223.8
Branch type MPKI
BRANCH_DIRECT_JUMP: 1.4e-05
BRANCH_INDIRECT: 4e-06
BRANCH_CONDITIONAL: 0.364
BRANCH_DIRECT_CALL: 6e-06
BRANCH_INDIRECT_CALL: 0
BRANCH_RETURN: 0.362

LLC TOTAL        ACCESS:    2543651 HIT:    1211804 MISS:    1331847
LLC LOAD         ACCESS:    1933430 HIT:     909786 MISS:    1023644
LLC RFO          ACCESS:     292747 HIT:         10 MISS:     292737
LLC PREFETCH     ACCESS:          0 HIT:          0 MISS:          0
LLC WRITE        ACCESS:     292674 HIT:     292673 MISS:          1
LLC TRANSLATION  ACCESS:      24800 HIT:       9335 MISS:      15465
LLC PREFETCH REQUESTED:          0 ISSUED:          0 USEFUL:          0 USELESS:          0
LLC AVERAGE MISS LATENCY: 654.2 cycles
cpu0_DTLB TOTAL        ACCESS:  125582646 HIT:  103525275 MISS:   22057371
cpu0_DTLB LOAD         ACCESS:  125582646 HIT:  103525275 MISS:   22057371
cpu0_DTLB RFO          ACCESS:          0 HIT:          0 MISS:          0
cpu0_DTLB PREFETCH     ACCESS:          0 HIT:          0 MISS:          0
cpu0_DTLB WRITE        ACCESS:          0 HIT:          0 MISS:          0
cpu0_DTLB TRANSLATION  ACCESS:          0 HIT:          0 MISS:          0
cpu0_DTLB PREFETCH REQUESTED:          0 ISSUED:          0 USEFUL:          0 USELESS:          0
cpu0_DTLB AVERAGE MISS LATENCY: 6.894 cycles
cpu0_ITLB TOTAL        ACCESS:   58701569 HIT:   58701569 MISS:          0
cpu0_ITLB LOAD         ACCESS:   58701569 HIT:   58701569 MISS:          0
cpu0_ITLB RFO          ACCESS:          0 HIT:          0 MISS:          0
cpu0_ITLB PREFETCH     ACCESS:          0 HIT:          0 MISS:          0
cpu0_ITLB WRITE        ACCESS:          0 HIT:          0 MISS:          0
cpu0_ITLB TRANSLATION  ACCESS:          0 HIT:          0 MISS:          0
cpu0_ITLB PREFETCH REQUESTED:          0 ISSUED:          0 USEFUL:          0 USELESS:          0
cpu0_ITLB AVERAGE MISS LATENCY: -nan cycles
cpu0_L1D TOTAL        ACCESS:  168138703 HIT:  129426134 MISS:   38712569
cpu0_L1D LOAD         ACCESS:  128304229 HIT:   93225656 MISS:   35078573
cpu0_L1D RFO          ACCESS:          0 HIT:          0 MISS:          0
cpu0_L1D PREFETCH     ACCESS:          0 HIT:          0 MISS:          0
cpu0_L1D WRITE        ACCESS:   39803000 HIT:   36200295 MISS:    3602705
cpu0_L1D TRANSLATION  ACCESS:      31474 HIT:        183 MISS:      31291
cpu0_L1D PREFETCH REQUESTED:          0 ISSUED:          0 USEFUL:          0 USELESS:          0
cpu0_L1D AVERAGE MISS LATENCY: 33.45 cycles
cpu0_L1I TOTAL        ACCESS:   83686955 HIT:   59058185 MISS:   24628770
cpu0_L1I LOAD         ACCESS:   83686955 HIT:   59058185 MISS:   24628770
cpu0_L1I RFO          ACCESS:          0 HIT:          0 MISS:          0
cpu0_L1I PREFETCH     ACCESS:          0 HIT:          0 MISS:          0
cpu0_L1I WRITE        ACCESS:          0 HIT:          0 MISS:          0
cpu0_L1I TRANSLATION  ACCESS:          0 HIT:          0 MISS:          0
cpu0_L1I PREFETCH REQUESTED:          0 ISSUED:          0 USEFUL:          0 USELESS:          0
cpu0_L1I AVERAGE MISS LATENCY: 5.619 cycles
cpu0_L2C TOTAL        ACCESS:   53608037 HIT:   51356923 MISS:    2251114
cpu0_L2C LOAD         ACCESS:   47582301 HIT:   45648871 MISS:    1933430
cpu0_L2C RFO          ACCESS:    3078801 HIT:    2786054 MISS:     292747
cpu0_L2C PREFETCH     ACCESS:          0 HIT:          0 MISS:          0
cpu0_L2C WRITE        ACCESS:    2915679 HIT:    2915542 MISS:        137
cpu0_L2C TRANSLATION  ACCESS:      31256 HIT:       6456 MISS:      24800
cpu0_L2C PREFETCH REQUESTED:          0 ISSUED:          0 USEFUL:          0 USELESS:          0
cpu0_L2C AVERAGE MISS LATENCY: 407.7 cycles
cpu0_STLB TOTAL        ACCESS:   19059993 HIT:   19039158 MISS:      20835
cpu0_STLB LOAD         ACCESS:   19059993 HIT:   19039158 MISS:      20835
cpu0_STLB RFO          ACCESS:          0 HIT:          0 MISS:          0
cpu0_STLB PREFETCH     ACCESS:          0 HIT:          0 MISS:          0
cpu0_STLB WRITE        ACCESS:          0 HIT:          0 MISS:          0
cpu0_STLB TRANSLATION  ACCESS:          0 HIT:          0 MISS:          0
cpu0_STLB PREFETCH REQUESTED:          0 ISSUED:          0 USEFUL:          0 USELESS:          0
cpu0_STLB AVERAGE MISS LATENCY: 602.8 cycles

DRAM Statistics

Channel 0 RQ ROW_BUFFER_HIT:     779101
  ROW_BUFFER_MISS:     552745
 AVG DBUS CONGESTED CYCLE: 3.953
WQ ROW_BUFFER_HIT: Channel 0 
  ROW_BUFFER_MISS:      52184
  FULL:     240536
