WARNING: physical memory size is smaller than virtual memory size.

*** ChampSim Multicore Out-of-Order Simulator ***
Warmup Instructions: 0
Simulation Instructions: 10000000000
Number of CPUs: 1
Page size: 4096

Off-chip DRAM Size: 4 GiB Channels: 1 Width: 64-bit Data Race: 3200 MT/s
Warmup finished CPU 0 instructions: 0 cycles: 1 cumulative IPC: 0 (Simulation time: 00 hr 00 min 00 sec)
Warmup complete CPU 0 instructions: 0 cycles: 1 cumulative IPC: 0 (Simulation time: 00 hr 00 min 00 sec)
Heartbeat CPU 0 instructions: 10000002 cycles: 4559365 heartbeat IPC: 2.193 cumulative IPC: 2.193 (Simulation time: 00 hr 00 min 30 sec)
Heartbeat CPU 0 instructions: 20000003 cycles: 8887796 heartbeat IPC: 2.31 cumulative IPC: 2.25 (Simulation time: 00 hr 00 min 59 sec)
Heartbeat CPU 0 instructions: 30000000 cycles: 13178899 heartbeat IPC: 2.33 cumulative IPC: 2.276 (Simulation time: 00 hr 01 min 29 sec)
Heartbeat CPU 0 instructions: 40000004 cycles: 17468224 heartbeat IPC: 2.331 cumulative IPC: 2.29 (Simulation time: 00 hr 01 min 59 sec)
Heartbeat CPU 0 instructions: 50000000 cycles: 21966143 heartbeat IPC: 2.223 cumulative IPC: 2.276 (Simulation time: 00 hr 02 min 30 sec)
Heartbeat CPU 0 instructions: 60000001 cycles: 26282359 heartbeat IPC: 2.317 cumulative IPC: 2.283 (Simulation time: 00 hr 03 min 01 sec)
Heartbeat CPU 0 instructions: 70000001 cycles: 30555944 heartbeat IPC: 2.34 cumulative IPC: 2.291 (Simulation time: 00 hr 03 min 32 sec)
Heartbeat CPU 0 instructions: 80000001 cycles: 34812608 heartbeat IPC: 2.349 cumulative IPC: 2.298 (Simulation time: 00 hr 04 min 03 sec)
Heartbeat CPU 0 instructions: 90000002 cycles: 39089964 heartbeat IPC: 2.338 cumulative IPC: 2.302 (Simulation time: 00 hr 04 min 35 sec)
Heartbeat CPU 0 instructions: 100000000 cycles: 43409210 heartbeat IPC: 2.315 cumulative IPC: 2.304 (Simulation time: 00 hr 05 min 05 sec)
Heartbeat CPU 0 instructions: 110000002 cycles: 47679440 heartbeat IPC: 2.342 cumulative IPC: 2.307 (Simulation time: 00 hr 05 min 36 sec)
Heartbeat CPU 0 instructions: 120000004 cycles: 51971029 heartbeat IPC: 2.33 cumulative IPC: 2.309 (Simulation time: 00 hr 06 min 07 sec)
Heartbeat CPU 0 instructions: 130000000 cycles: 56270056 heartbeat IPC: 2.326 cumulative IPC: 2.31 (Simulation time: 00 hr 06 min 38 sec)
Heartbeat CPU 0 instructions: 140000001 cycles: 60616277 heartbeat IPC: 2.301 cumulative IPC: 2.31 (Simulation time: 00 hr 07 min 09 sec)
Heartbeat CPU 0 instructions: 150000000 cycles: 64970182 heartbeat IPC: 2.297 cumulative IPC: 2.309 (Simulation time: 00 hr 07 min 41 sec)
Heartbeat CPU 0 instructions: 160000003 cycles: 69369014 heartbeat IPC: 2.273 cumulative IPC: 2.307 (Simulation time: 00 hr 08 min 12 sec)
Heartbeat CPU 0 instructions: 170000000 cycles: 73685309 heartbeat IPC: 2.317 cumulative IPC: 2.307 (Simulation time: 00 hr 08 min 43 sec)
Heartbeat CPU 0 instructions: 180000004 cycles: 78036920 heartbeat IPC: 2.298 cumulative IPC: 2.307 (Simulation time: 00 hr 09 min 15 sec)
Heartbeat CPU 0 instructions: 190000001 cycles: 82329278 heartbeat IPC: 2.33 cumulative IPC: 2.308 (Simulation time: 00 hr 09 min 46 sec)
Heartbeat CPU 0 instructions: 200000003 cycles: 86875171 heartbeat IPC: 2.2 cumulative IPC: 2.302 (Simulation time: 00 hr 10 min 17 sec)
Heartbeat CPU 0 instructions: 210000002 cycles: 91248026 heartbeat IPC: 2.287 cumulative IPC: 2.301 (Simulation time: 00 hr 10 min 49 sec)
Heartbeat CPU 0 instructions: 220000002 cycles: 95611822 heartbeat IPC: 2.292 cumulative IPC: 2.301 (Simulation time: 00 hr 11 min 20 sec)
Heartbeat CPU 0 instructions: 230000001 cycles: 99928379 heartbeat IPC: 2.317 cumulative IPC: 2.302 (Simulation time: 00 hr 11 min 51 sec)
Heartbeat CPU 0 instructions: 240000003 cycles: 104259786 heartbeat IPC: 2.309 cumulative IPC: 2.302 (Simulation time: 00 hr 12 min 22 sec)
Heartbeat CPU 0 instructions: 250000003 cycles: 108598148 heartbeat IPC: 2.305 cumulative IPC: 2.302 (Simulation time: 00 hr 12 min 53 sec)
Heartbeat CPU 0 instructions: 260000000 cycles: 112941701 heartbeat IPC: 2.302 cumulative IPC: 2.302 (Simulation time: 00 hr 13 min 24 sec)
Heartbeat CPU 0 instructions: 270000001 cycles: 117282704 heartbeat IPC: 2.304 cumulative IPC: 2.302 (Simulation time: 00 hr 13 min 56 sec)
Heartbeat CPU 0 instructions: 280000001 cycles: 121609476 heartbeat IPC: 2.311 cumulative IPC: 2.302 (Simulation time: 00 hr 14 min 27 sec)
Heartbeat CPU 0 instructions: 290000002 cycles: 125913485 heartbeat IPC: 2.323 cumulative IPC: 2.303 (Simulation time: 00 hr 14 min 58 sec)
Heartbeat CPU 0 instructions: 300000003 cycles: 130276810 heartbeat IPC: 2.292 cumulative IPC: 2.303 (Simulation time: 00 hr 15 min 29 sec)
Heartbeat CPU 0 instructions: 310000000 cycles: 134725989 heartbeat IPC: 2.248 cumulative IPC: 2.301 (Simulation time: 00 hr 16 min 01 sec)
Heartbeat CPU 0 instructions: 320000000 cycles: 139036441 heartbeat IPC: 2.32 cumulative IPC: 2.302 (Simulation time: 00 hr 16 min 32 sec)
Heartbeat CPU 0 instructions: 330000001 cycles: 143315865 heartbeat IPC: 2.337 cumulative IPC: 2.303 (Simulation time: 00 hr 17 min 03 sec)
Heartbeat CPU 0 instructions: 340000003 cycles: 147641882 heartbeat IPC: 2.312 cumulative IPC: 2.303 (Simulation time: 00 hr 17 min 34 sec)
Heartbeat CPU 0 instructions: 350000003 cycles: 151927771 heartbeat IPC: 2.333 cumulative IPC: 2.304 (Simulation time: 00 hr 18 min 05 sec)
Heartbeat CPU 0 instructions: 360000004 cycles: 156523047 heartbeat IPC: 2.176 cumulative IPC: 2.3 (Simulation time: 00 hr 18 min 38 sec)
Heartbeat CPU 0 instructions: 370000002 cycles: 160835942 heartbeat IPC: 2.319 cumulative IPC: 2.3 (Simulation time: 00 hr 19 min 09 sec)
Heartbeat CPU 0 instructions: 380000002 cycles: 165153453 heartbeat IPC: 2.316 cumulative IPC: 2.301 (Simulation time: 00 hr 19 min 40 sec)
Heartbeat CPU 0 instructions: 390000001 cycles: 169461255 heartbeat IPC: 2.321 cumulative IPC: 2.301 (Simulation time: 00 hr 20 min 11 sec)
Heartbeat CPU 0 instructions: 400000001 cycles: 173788746 heartbeat IPC: 2.311 cumulative IPC: 2.302 (Simulation time: 00 hr 20 min 43 sec)
Heartbeat CPU 0 instructions: 410000000 cycles: 178107686 heartbeat IPC: 2.315 cumulative IPC: 2.302 (Simulation time: 00 hr 21 min 14 sec)
Heartbeat CPU 0 instructions: 420000000 cycles: 182449165 heartbeat IPC: 2.303 cumulative IPC: 2.302 (Simulation time: 00 hr 21 min 45 sec)
Heartbeat CPU 0 instructions: 430000003 cycles: 186766254 heartbeat IPC: 2.316 cumulative IPC: 2.302 (Simulation time: 00 hr 22 min 16 sec)
Heartbeat CPU 0 instructions: 440000002 cycles: 191051871 heartbeat IPC: 2.333 cumulative IPC: 2.303 (Simulation time: 00 hr 22 min 47 sec)
Heartbeat CPU 0 instructions: 450000004 cycles: 195377781 heartbeat IPC: 2.312 cumulative IPC: 2.303 (Simulation time: 00 hr 23 min 18 sec)
Heartbeat CPU 0 instructions: 460000001 cycles: 199708217 heartbeat IPC: 2.309 cumulative IPC: 2.303 (Simulation time: 00 hr 23 min 49 sec)
Heartbeat CPU 0 instructions: 470000001 cycles: 204021070 heartbeat IPC: 2.319 cumulative IPC: 2.304 (Simulation time: 00 hr 24 min 20 sec)
Heartbeat CPU 0 instructions: 480000004 cycles: 208365636 heartbeat IPC: 2.302 cumulative IPC: 2.304 (Simulation time: 00 hr 24 min 51 sec)
Heartbeat CPU 0 instructions: 490000000 cycles: 212711754 heartbeat IPC: 2.301 cumulative IPC: 2.304 (Simulation time: 00 hr 25 min 23 sec)
Heartbeat CPU 0 instructions: 500000003 cycles: 217035395 heartbeat IPC: 2.313 cumulative IPC: 2.304 (Simulation time: 00 hr 25 min 54 sec)
Heartbeat CPU 0 instructions: 510000001 cycles: 221598467 heartbeat IPC: 2.192 cumulative IPC: 2.301 (Simulation time: 00 hr 26 min 26 sec)
Heartbeat CPU 0 instructions: 520000004 cycles: 225906652 heartbeat IPC: 2.321 cumulative IPC: 2.302 (Simulation time: 00 hr 26 min 57 sec)
Heartbeat CPU 0 instructions: 530000004 cycles: 230263509 heartbeat IPC: 2.295 cumulative IPC: 2.302 (Simulation time: 00 hr 27 min 28 sec)
Heartbeat CPU 0 instructions: 540000002 cycles: 234594752 heartbeat IPC: 2.309 cumulative IPC: 2.302 (Simulation time: 00 hr 27 min 59 sec)
Heartbeat CPU 0 instructions: 550000001 cycles: 238933079 heartbeat IPC: 2.305 cumulative IPC: 2.302 (Simulation time: 00 hr 28 min 30 sec)
Heartbeat CPU 0 instructions: 560000001 cycles: 243285784 heartbeat IPC: 2.297 cumulative IPC: 2.302 (Simulation time: 00 hr 29 min 02 sec)
Heartbeat CPU 0 instructions: 570000000 cycles: 247612190 heartbeat IPC: 2.311 cumulative IPC: 2.302 (Simulation time: 00 hr 29 min 33 sec)
Heartbeat CPU 0 instructions: 580000003 cycles: 251942581 heartbeat IPC: 2.309 cumulative IPC: 2.302 (Simulation time: 00 hr 30 min 04 sec)
Heartbeat CPU 0 instructions: 590000003 cycles: 256256618 heartbeat IPC: 2.318 cumulative IPC: 2.302 (Simulation time: 00 hr 30 min 35 sec)
Heartbeat CPU 0 instructions: 600000000 cycles: 260574347 heartbeat IPC: 2.316 cumulative IPC: 2.303 (Simulation time: 00 hr 31 min 07 sec)
Heartbeat CPU 0 instructions: 610000001 cycles: 264942344 heartbeat IPC: 2.289 cumulative IPC: 2.302 (Simulation time: 00 hr 31 min 38 sec)
Heartbeat CPU 0 instructions: 620000000 cycles: 269243781 heartbeat IPC: 2.325 cumulative IPC: 2.303 (Simulation time: 00 hr 32 min 09 sec)
Heartbeat CPU 0 instructions: 630000003 cycles: 273572927 heartbeat IPC: 2.31 cumulative IPC: 2.303 (Simulation time: 00 hr 32 min 40 sec)
Heartbeat CPU 0 instructions: 640000003 cycles: 277880005 heartbeat IPC: 2.322 cumulative IPC: 2.303 (Simulation time: 00 hr 33 min 11 sec)
Heartbeat CPU 0 instructions: 650000000 cycles: 282197381 heartbeat IPC: 2.316 cumulative IPC: 2.303 (Simulation time: 00 hr 33 min 42 sec)
Heartbeat CPU 0 instructions: 660000002 cycles: 286803115 heartbeat IPC: 2.171 cumulative IPC: 2.301 (Simulation time: 00 hr 34 min 14 sec)
Heartbeat CPU 0 instructions: 670000002 cycles: 291084704 heartbeat IPC: 2.336 cumulative IPC: 2.302 (Simulation time: 00 hr 34 min 46 sec)
Heartbeat CPU 0 instructions: 680000000 cycles: 295393147 heartbeat IPC: 2.321 cumulative IPC: 2.302 (Simulation time: 00 hr 35 min 17 sec)
Heartbeat CPU 0 instructions: 690000003 cycles: 299695585 heartbeat IPC: 2.324 cumulative IPC: 2.302 (Simulation time: 00 hr 35 min 48 sec)
Heartbeat CPU 0 instructions: 700000001 cycles: 304039401 heartbeat IPC: 2.302 cumulative IPC: 2.302 (Simulation time: 00 hr 36 min 19 sec)
Heartbeat CPU 0 instructions: 710000001 cycles: 308355752 heartbeat IPC: 2.317 cumulative IPC: 2.303 (Simulation time: 00 hr 36 min 50 sec)
Heartbeat CPU 0 instructions: 720000004 cycles: 312674456 heartbeat IPC: 2.316 cumulative IPC: 2.303 (Simulation time: 00 hr 37 min 22 sec)
Heartbeat CPU 0 instructions: 730000001 cycles: 316977551 heartbeat IPC: 2.324 cumulative IPC: 2.303 (Simulation time: 00 hr 37 min 53 sec)
Heartbeat CPU 0 instructions: 740000002 cycles: 321293690 heartbeat IPC: 2.317 cumulative IPC: 2.303 (Simulation time: 00 hr 38 min 24 sec)
Heartbeat CPU 0 instructions: 750000000 cycles: 325589247 heartbeat IPC: 2.328 cumulative IPC: 2.304 (Simulation time: 00 hr 38 min 55 sec)
Heartbeat CPU 0 instructions: 760000002 cycles: 329897492 heartbeat IPC: 2.321 cumulative IPC: 2.304 (Simulation time: 00 hr 39 min 26 sec)
Heartbeat CPU 0 instructions: 770000003 cycles: 334235838 heartbeat IPC: 2.305 cumulative IPC: 2.304 (Simulation time: 00 hr 39 min 58 sec)
Heartbeat CPU 0 instructions: 780000004 cycles: 338564788 heartbeat IPC: 2.31 cumulative IPC: 2.304 (Simulation time: 00 hr 40 min 29 sec)
Heartbeat CPU 0 instructions: 790000000 cycles: 342906601 heartbeat IPC: 2.303 cumulative IPC: 2.304 (Simulation time: 00 hr 41 min 00 sec)
Heartbeat CPU 0 instructions: 800000003 cycles: 347205079 heartbeat IPC: 2.326 cumulative IPC: 2.304 (Simulation time: 00 hr 41 min 32 sec)
Heartbeat CPU 0 instructions: 810000001 cycles: 351766200 heartbeat IPC: 2.192 cumulative IPC: 2.303 (Simulation time: 00 hr 42 min 04 sec)
Heartbeat CPU 0 instructions: 820000003 cycles: 356101138 heartbeat IPC: 2.307 cumulative IPC: 2.303 (Simulation time: 00 hr 42 min 35 sec)
Heartbeat CPU 0 instructions: 830000003 cycles: 360419548 heartbeat IPC: 2.316 cumulative IPC: 2.303 (Simulation time: 00 hr 43 min 06 sec)
Heartbeat CPU 0 instructions: 840000000 cycles: 364708633 heartbeat IPC: 2.331 cumulative IPC: 2.303 (Simulation time: 00 hr 43 min 37 sec)
Heartbeat CPU 0 instructions: 850000004 cycles: 369054685 heartbeat IPC: 2.301 cumulative IPC: 2.303 (Simulation time: 00 hr 44 min 08 sec)
Heartbeat CPU 0 instructions: 860000003 cycles: 373367314 heartbeat IPC: 2.319 cumulative IPC: 2.303 (Simulation time: 00 hr 44 min 40 sec)
Heartbeat CPU 0 instructions: 870000001 cycles: 377706282 heartbeat IPC: 2.305 cumulative IPC: 2.303 (Simulation time: 00 hr 45 min 11 sec)
Heartbeat CPU 0 instructions: 880000001 cycles: 382047564 heartbeat IPC: 2.303 cumulative IPC: 2.303 (Simulation time: 00 hr 45 min 42 sec)
Heartbeat CPU 0 instructions: 890000001 cycles: 386393740 heartbeat IPC: 2.301 cumulative IPC: 2.303 (Simulation time: 00 hr 46 min 14 sec)
Heartbeat CPU 0 instructions: 900000001 cycles: 390713390 heartbeat IPC: 2.315 cumulative IPC: 2.303 (Simulation time: 00 hr 46 min 45 sec)
Heartbeat CPU 0 instructions: 910000002 cycles: 395045638 heartbeat IPC: 2.308 cumulative IPC: 2.304 (Simulation time: 00 hr 47 min 16 sec)
Heartbeat CPU 0 instructions: 920000002 cycles: 399353906 heartbeat IPC: 2.321 cumulative IPC: 2.304 (Simulation time: 00 hr 47 min 49 sec)
Heartbeat CPU 0 instructions: 930000002 cycles: 403699691 heartbeat IPC: 2.301 cumulative IPC: 2.304 (Simulation time: 00 hr 48 min 23 sec)
Heartbeat CPU 0 instructions: 940000000 cycles: 408014213 heartbeat IPC: 2.318 cumulative IPC: 2.304 (Simulation time: 00 hr 48 min 55 sec)
Heartbeat CPU 0 instructions: 950000004 cycles: 412342255 heartbeat IPC: 2.311 cumulative IPC: 2.304 (Simulation time: 00 hr 49 min 26 sec)
Heartbeat CPU 0 instructions: 960000000 cycles: 416669995 heartbeat IPC: 2.311 cumulative IPC: 2.304 (Simulation time: 00 hr 49 min 58 sec)
Heartbeat CPU 0 instructions: 970000000 cycles: 421225762 heartbeat IPC: 2.195 cumulative IPC: 2.303 (Simulation time: 00 hr 50 min 30 sec)
Heartbeat CPU 0 instructions: 980000000 cycles: 425529518 heartbeat IPC: 2.324 cumulative IPC: 2.303 (Simulation time: 00 hr 51 min 02 sec)
Heartbeat CPU 0 instructions: 990000002 cycles: 429830403 heartbeat IPC: 2.325 cumulative IPC: 2.303 (Simulation time: 00 hr 51 min 33 sec)
Heartbeat CPU 0 instructions: 1000000001 cycles: 434183094 heartbeat IPC: 2.297 cumulative IPC: 2.303 (Simulation time: 00 hr 52 min 05 sec)
Heartbeat CPU 0 instructions: 1010000004 cycles: 438488552 heartbeat IPC: 2.323 cumulative IPC: 2.303 (Simulation time: 00 hr 52 min 36 sec)
Heartbeat CPU 0 instructions: 1020000001 cycles: 442811290 heartbeat IPC: 2.313 cumulative IPC: 2.303 (Simulation time: 00 hr 53 min 09 sec)
Heartbeat CPU 0 instructions: 1030000004 cycles: 447136479 heartbeat IPC: 2.312 cumulative IPC: 2.304 (Simulation time: 00 hr 53 min 42 sec)
Heartbeat CPU 0 instructions: 1040000000 cycles: 451459184 heartbeat IPC: 2.313 cumulative IPC: 2.304 (Simulation time: 00 hr 54 min 14 sec)
Heartbeat CPU 0 instructions: 1050000000 cycles: 455792466 heartbeat IPC: 2.308 cumulative IPC: 2.304 (Simulation time: 00 hr 54 min 46 sec)
Heartbeat CPU 0 instructions: 1060000000 cycles: 460141443 heartbeat IPC: 2.299 cumulative IPC: 2.304 (Simulation time: 00 hr 55 min 17 sec)
Heartbeat CPU 0 instructions: 1070000003 cycles: 464465696 heartbeat IPC: 2.313 cumulative IPC: 2.304 (Simulation time: 00 hr 55 min 48 sec)
Heartbeat CPU 0 instructions: 1080000002 cycles: 468806730 heartbeat IPC: 2.304 cumulative IPC: 2.304 (Simulation time: 00 hr 56 min 20 sec)
Heartbeat CPU 0 instructions: 1090000002 cycles: 473124281 heartbeat IPC: 2.316 cumulative IPC: 2.304 (Simulation time: 00 hr 56 min 51 sec)
Heartbeat CPU 0 instructions: 1100000003 cycles: 477436941 heartbeat IPC: 2.319 cumulative IPC: 2.304 (Simulation time: 00 hr 57 min 24 sec)
Heartbeat CPU 0 instructions: 1110000003 cycles: 481747645 heartbeat IPC: 2.32 cumulative IPC: 2.304 (Simulation time: 00 hr 57 min 57 sec)
Heartbeat CPU 0 instructions: 1120000001 cycles: 486301915 heartbeat IPC: 2.196 cumulative IPC: 2.303 (Simulation time: 00 hr 58 min 31 sec)
Heartbeat CPU 0 instructions: 1130000000 cycles: 490632235 heartbeat IPC: 2.309 cumulative IPC: 2.303 (Simulation time: 00 hr 59 min 04 sec)
Heartbeat CPU 0 instructions: 1140000004 cycles: 494913736 heartbeat IPC: 2.336 cumulative IPC: 2.303 (Simulation time: 00 hr 59 min 36 sec)
Heartbeat CPU 0 instructions: 1150000004 cycles: 499251888 heartbeat IPC: 2.305 cumulative IPC: 2.303 (Simulation time: 01 hr 00 min 07 sec)
Heartbeat CPU 0 instructions: 1160000004 cycles: 503587618 heartbeat IPC: 2.306 cumulative IPC: 2.303 (Simulation time: 01 hr 00 min 38 sec)
Heartbeat CPU 0 instructions: 1170000001 cycles: 507922121 heartbeat IPC: 2.307 cumulative IPC: 2.304 (Simulation time: 01 hr 01 min 10 sec)
Heartbeat CPU 0 instructions: 1180000004 cycles: 512238537 heartbeat IPC: 2.317 cumulative IPC: 2.304 (Simulation time: 01 hr 01 min 41 sec)
Heartbeat CPU 0 instructions: 1190000000 cycles: 516586532 heartbeat IPC: 2.3 cumulative IPC: 2.304 (Simulation time: 01 hr 02 min 13 sec)
Heartbeat CPU 0 instructions: 1200000001 cycles: 520899229 heartbeat IPC: 2.319 cumulative IPC: 2.304 (Simulation time: 01 hr 02 min 44 sec)
Heartbeat CPU 0 instructions: 1210000002 cycles: 525260555 heartbeat IPC: 2.293 cumulative IPC: 2.304 (Simulation time: 01 hr 03 min 16 sec)
Heartbeat CPU 0 instructions: 1220000000 cycles: 529583661 heartbeat IPC: 2.313 cumulative IPC: 2.304 (Simulation time: 01 hr 03 min 48 sec)
Heartbeat CPU 0 instructions: 1230000003 cycles: 533902808 heartbeat IPC: 2.315 cumulative IPC: 2.304 (Simulation time: 01 hr 04 min 20 sec)
Heartbeat CPU 0 instructions: 1240000003 cycles: 538232615 heartbeat IPC: 2.31 cumulative IPC: 2.304 (Simulation time: 01 hr 04 min 51 sec)
Heartbeat CPU 0 instructions: 1250000002 cycles: 542557129 heartbeat IPC: 2.312 cumulative IPC: 2.304 (Simulation time: 01 hr 05 min 23 sec)
Heartbeat CPU 0 instructions: 1260000000 cycles: 546881570 heartbeat IPC: 2.312 cumulative IPC: 2.304 (Simulation time: 01 hr 05 min 55 sec)
Heartbeat CPU 0 instructions: 1270000000 cycles: 551416883 heartbeat IPC: 2.205 cumulative IPC: 2.303 (Simulation time: 01 hr 06 min 27 sec)
Heartbeat CPU 0 instructions: 1280000003 cycles: 555782473 heartbeat IPC: 2.291 cumulative IPC: 2.303 (Simulation time: 01 hr 06 min 58 sec)
Heartbeat CPU 0 instructions: 1290000002 cycles: 560117862 heartbeat IPC: 2.307 cumulative IPC: 2.303 (Simulation time: 01 hr 07 min 30 sec)
Heartbeat CPU 0 instructions: 1300000002 cycles: 564433272 heartbeat IPC: 2.317 cumulative IPC: 2.303 (Simulation time: 01 hr 08 min 01 sec)
Heartbeat CPU 0 instructions: 1310000001 cycles: 568763295 heartbeat IPC: 2.309 cumulative IPC: 2.303 (Simulation time: 01 hr 08 min 32 sec)
Heartbeat CPU 0 instructions: 1320000004 cycles: 573089310 heartbeat IPC: 2.312 cumulative IPC: 2.303 (Simulation time: 01 hr 09 min 04 sec)
Heartbeat CPU 0 instructions: 1330000003 cycles: 577420345 heartbeat IPC: 2.309 cumulative IPC: 2.303 (Simulation time: 01 hr 09 min 35 sec)
Heartbeat CPU 0 instructions: 1340000003 cycles: 581763424 heartbeat IPC: 2.303 cumulative IPC: 2.303 (Simulation time: 01 hr 10 min 06 sec)
Heartbeat CPU 0 instructions: 1350000002 cycles: 586049487 heartbeat IPC: 2.333 cumulative IPC: 2.304 (Simulation time: 01 hr 10 min 37 sec)
Heartbeat CPU 0 instructions: 1360000000 cycles: 590377111 heartbeat IPC: 2.311 cumulative IPC: 2.304 (Simulation time: 01 hr 11 min 08 sec)
Heartbeat CPU 0 instructions: 1370000002 cycles: 594694979 heartbeat IPC: 2.316 cumulative IPC: 2.304 (Simulation time: 01 hr 11 min 39 sec)
Heartbeat CPU 0 instructions: 1380000001 cycles: 599035389 heartbeat IPC: 2.304 cumulative IPC: 2.304 (Simulation time: 01 hr 12 min 11 sec)
Heartbeat CPU 0 instructions: 1390000003 cycles: 603392020 heartbeat IPC: 2.295 cumulative IPC: 2.304 (Simulation time: 01 hr 12 min 42 sec)
Heartbeat CPU 0 instructions: 1400000001 cycles: 607706335 heartbeat IPC: 2.318 cumulative IPC: 2.304 (Simulation time: 01 hr 13 min 13 sec)
Heartbeat CPU 0 instructions: 1410000001 cycles: 612025194 heartbeat IPC: 2.315 cumulative IPC: 2.304 (Simulation time: 01 hr 13 min 45 sec)
Heartbeat CPU 0 instructions: 1420000004 cycles: 616617461 heartbeat IPC: 2.178 cumulative IPC: 2.303 (Simulation time: 01 hr 14 min 17 sec)
Heartbeat CPU 0 instructions: 1430000002 cycles: 620960167 heartbeat IPC: 2.303 cumulative IPC: 2.303 (Simulation time: 01 hr 14 min 48 sec)
Heartbeat CPU 0 instructions: 1440000003 cycles: 625255154 heartbeat IPC: 2.328 cumulative IPC: 2.303 (Simulation time: 01 hr 15 min 20 sec)
Heartbeat CPU 0 instructions: 1450000001 cycles: 629543893 heartbeat IPC: 2.332 cumulative IPC: 2.303 (Simulation time: 01 hr 15 min 51 sec)
Heartbeat CPU 0 instructions: 1460000002 cycles: 633856039 heartbeat IPC: 2.319 cumulative IPC: 2.303 (Simulation time: 01 hr 16 min 22 sec)
Heartbeat CPU 0 instructions: 1470000001 cycles: 638157724 heartbeat IPC: 2.325 cumulative IPC: 2.304 (Simulation time: 01 hr 16 min 53 sec)
Heartbeat CPU 0 instructions: 1480000003 cycles: 642469700 heartbeat IPC: 2.319 cumulative IPC: 2.304 (Simulation time: 01 hr 17 min 25 sec)
Heartbeat CPU 0 instructions: 1490000002 cycles: 646799143 heartbeat IPC: 2.31 cumulative IPC: 2.304 (Simulation time: 01 hr 17 min 56 sec)
Heartbeat CPU 0 instructions: 1500000000 cycles: 651160909 heartbeat IPC: 2.293 cumulative IPC: 2.304 (Simulation time: 01 hr 18 min 28 sec)
Heartbeat CPU 0 instructions: 1510000002 cycles: 655508558 heartbeat IPC: 2.3 cumulative IPC: 2.304 (Simulation time: 01 hr 18 min 59 sec)
Heartbeat CPU 0 instructions: 1520000003 cycles: 659832185 heartbeat IPC: 2.313 cumulative IPC: 2.304 (Simulation time: 01 hr 19 min 30 sec)
Heartbeat CPU 0 instructions: 1530000003 cycles: 664191247 heartbeat IPC: 2.294 cumulative IPC: 2.304 (Simulation time: 01 hr 20 min 02 sec)
Heartbeat CPU 0 instructions: 1540000000 cycles: 668525167 heartbeat IPC: 2.307 cumulative IPC: 2.304 (Simulation time: 01 hr 20 min 34 sec)
Heartbeat CPU 0 instructions: 1550000002 cycles: 672854392 heartbeat IPC: 2.31 cumulative IPC: 2.304 (Simulation time: 01 hr 21 min 05 sec)
Heartbeat CPU 0 instructions: 1560000003 cycles: 677155426 heartbeat IPC: 2.325 cumulative IPC: 2.304 (Simulation time: 01 hr 21 min 36 sec)
Heartbeat CPU 0 instructions: 1570000001 cycles: 681476292 heartbeat IPC: 2.314 cumulative IPC: 2.304 (Simulation time: 01 hr 22 min 07 sec)
Heartbeat CPU 0 instructions: 1580000000 cycles: 686061966 heartbeat IPC: 2.181 cumulative IPC: 2.303 (Simulation time: 01 hr 22 min 39 sec)
Heartbeat CPU 0 instructions: 1590000000 cycles: 690392469 heartbeat IPC: 2.309 cumulative IPC: 2.303 (Simulation time: 01 hr 23 min 11 sec)
Heartbeat CPU 0 instructions: 1600000002 cycles: 694721261 heartbeat IPC: 2.31 cumulative IPC: 2.303 (Simulation time: 01 hr 23 min 42 sec)
Heartbeat CPU 0 instructions: 1610000003 cycles: 699057312 heartbeat IPC: 2.306 cumulative IPC: 2.303 (Simulation time: 01 hr 24 min 14 sec)
Heartbeat CPU 0 instructions: 1620000004 cycles: 703365542 heartbeat IPC: 2.321 cumulative IPC: 2.303 (Simulation time: 01 hr 24 min 45 sec)
Heartbeat CPU 0 instructions: 1630000002 cycles: 707713769 heartbeat IPC: 2.3 cumulative IPC: 2.303 (Simulation time: 01 hr 25 min 16 sec)
Heartbeat CPU 0 instructions: 1640000004 cycles: 712005990 heartbeat IPC: 2.33 cumulative IPC: 2.303 (Simulation time: 01 hr 25 min 47 sec)
Heartbeat CPU 0 instructions: 1650000000 cycles: 716335316 heartbeat IPC: 2.31 cumulative IPC: 2.303 (Simulation time: 01 hr 26 min 18 sec)
Heartbeat CPU 0 instructions: 1660000000 cycles: 720621432 heartbeat IPC: 2.333 cumulative IPC: 2.304 (Simulation time: 01 hr 26 min 50 sec)
Heartbeat CPU 0 instructions: 1670000001 cycles: 724912485 heartbeat IPC: 2.33 cumulative IPC: 2.304 (Simulation time: 01 hr 27 min 21 sec)
Heartbeat CPU 0 instructions: 1680000001 cycles: 729203418 heartbeat IPC: 2.33 cumulative IPC: 2.304 (Simulation time: 01 hr 27 min 52 sec)
Heartbeat CPU 0 instructions: 1690000001 cycles: 733527628 heartbeat IPC: 2.313 cumulative IPC: 2.304 (Simulation time: 01 hr 28 min 23 sec)
Heartbeat CPU 0 instructions: 1700000001 cycles: 737856303 heartbeat IPC: 2.31 cumulative IPC: 2.304 (Simulation time: 01 hr 28 min 54 sec)
Heartbeat CPU 0 instructions: 1710000002 cycles: 742192301 heartbeat IPC: 2.306 cumulative IPC: 2.304 (Simulation time: 01 hr 29 min 25 sec)
Heartbeat CPU 0 instructions: 1720000002 cycles: 746543416 heartbeat IPC: 2.298 cumulative IPC: 2.304 (Simulation time: 01 hr 29 min 57 sec)
Heartbeat CPU 0 instructions: 1730000000 cycles: 751069766 heartbeat IPC: 2.209 cumulative IPC: 2.303 (Simulation time: 01 hr 30 min 29 sec)
Heartbeat CPU 0 instructions: 1740000003 cycles: 755415017 heartbeat IPC: 2.301 cumulative IPC: 2.303 (Simulation time: 01 hr 31 min 00 sec)
Heartbeat CPU 0 instructions: 1750000002 cycles: 759742587 heartbeat IPC: 2.311 cumulative IPC: 2.303 (Simulation time: 01 hr 31 min 32 sec)
Heartbeat CPU 0 instructions: 1760000001 cycles: 764062116 heartbeat IPC: 2.315 cumulative IPC: 2.303 (Simulation time: 01 hr 32 min 03 sec)
Heartbeat CPU 0 instructions: 1770000001 cycles: 768388963 heartbeat IPC: 2.311 cumulative IPC: 2.304 (Simulation time: 01 hr 32 min 35 sec)
Heartbeat CPU 0 instructions: 1780000000 cycles: 772706475 heartbeat IPC: 2.316 cumulative IPC: 2.304 (Simulation time: 01 hr 33 min 06 sec)
Heartbeat CPU 0 instructions: 1790000003 cycles: 777003200 heartbeat IPC: 2.327 cumulative IPC: 2.304 (Simulation time: 01 hr 33 min 37 sec)
Heartbeat CPU 0 instructions: 1800000002 cycles: 781340734 heartbeat IPC: 2.305 cumulative IPC: 2.304 (Simulation time: 01 hr 34 min 08 sec)
Heartbeat CPU 0 instructions: 1810000003 cycles: 785635031 heartbeat IPC: 2.329 cumulative IPC: 2.304 (Simulation time: 01 hr 34 min 39 sec)
Heartbeat CPU 0 instructions: 1820000000 cycles: 789963229 heartbeat IPC: 2.31 cumulative IPC: 2.304 (Simulation time: 01 hr 35 min 11 sec)
Heartbeat CPU 0 instructions: 1830000003 cycles: 794320508 heartbeat IPC: 2.295 cumulative IPC: 2.304 (Simulation time: 01 hr 35 min 42 sec)
Heartbeat CPU 0 instructions: 1840000004 cycles: 798657066 heartbeat IPC: 2.306 cumulative IPC: 2.304 (Simulation time: 01 hr 36 min 13 sec)
Heartbeat CPU 0 instructions: 1850000001 cycles: 803000836 heartbeat IPC: 2.302 cumulative IPC: 2.304 (Simulation time: 01 hr 36 min 45 sec)
Heartbeat CPU 0 instructions: 1860000001 cycles: 807355637 heartbeat IPC: 2.296 cumulative IPC: 2.304 (Simulation time: 01 hr 37 min 16 sec)
Heartbeat CPU 0 instructions: 1870000002 cycles: 811705528 heartbeat IPC: 2.299 cumulative IPC: 2.304 (Simulation time: 01 hr 37 min 48 sec)
Heartbeat CPU 0 instructions: 1880000004 cycles: 816277299 heartbeat IPC: 2.187 cumulative IPC: 2.303 (Simulation time: 01 hr 38 min 20 sec)
Heartbeat CPU 0 instructions: 1890000003 cycles: 820587023 heartbeat IPC: 2.32 cumulative IPC: 2.303 (Simulation time: 01 hr 38 min 51 sec)
Heartbeat CPU 0 instructions: 1900000004 cycles: 824887356 heartbeat IPC: 2.325 cumulative IPC: 2.303 (Simulation time: 01 hr 39 min 22 sec)
Heartbeat CPU 0 instructions: 1910000004 cycles: 829222007 heartbeat IPC: 2.307 cumulative IPC: 2.303 (Simulation time: 01 hr 39 min 53 sec)
Heartbeat CPU 0 instructions: 1920000001 cycles: 833580746 heartbeat IPC: 2.294 cumulative IPC: 2.303 (Simulation time: 01 hr 40 min 24 sec)
Heartbeat CPU 0 instructions: 1930000003 cycles: 837915482 heartbeat IPC: 2.307 cumulative IPC: 2.303 (Simulation time: 01 hr 40 min 55 sec)
Heartbeat CPU 0 instructions: 1940000000 cycles: 842261054 heartbeat IPC: 2.301 cumulative IPC: 2.303 (Simulation time: 01 hr 41 min 27 sec)
Heartbeat CPU 0 instructions: 1950000001 cycles: 846606082 heartbeat IPC: 2.301 cumulative IPC: 2.303 (Simulation time: 01 hr 41 min 58 sec)
Heartbeat CPU 0 instructions: 1960000001 cycles: 850896209 heartbeat IPC: 2.331 cumulative IPC: 2.303 (Simulation time: 01 hr 42 min 29 sec)
Heartbeat CPU 0 instructions: 1970000001 cycles: 855213567 heartbeat IPC: 2.316 cumulative IPC: 2.304 (Simulation time: 01 hr 43 min 00 sec)
Heartbeat CPU 0 instructions: 1980000001 cycles: 859542639 heartbeat IPC: 2.31 cumulative IPC: 2.304 (Simulation time: 01 hr 43 min 31 sec)
Heartbeat CPU 0 instructions: 1990000002 cycles: 863880189 heartbeat IPC: 2.305 cumulative IPC: 2.304 (Simulation time: 01 hr 44 min 03 sec)
*** Reached end of trace: (0, "traces/607.cactuBSSN_s-3477B.champsimtrace.xz")
Heartbeat CPU 0 instructions: 2000000000 cycles: 868215381 heartbeat IPC: 2.307 cumulative IPC: 2.304 (Simulation time: 01 hr 44 min 34 sec)
Heartbeat CPU 0 instructions: 2010000001 cycles: 872743370 heartbeat IPC: 2.208 cumulative IPC: 2.303 (Simulation time: 01 hr 45 min 06 sec)
Heartbeat CPU 0 instructions: 2020000002 cycles: 877048131 heartbeat IPC: 2.323 cumulative IPC: 2.303 (Simulation time: 01 hr 45 min 37 sec)
Heartbeat CPU 0 instructions: 2030000004 cycles: 881334005 heartbeat IPC: 2.333 cumulative IPC: 2.303 (Simulation time: 01 hr 46 min 08 sec)
Heartbeat CPU 0 instructions: 2040000003 cycles: 885615759 heartbeat IPC: 2.335 cumulative IPC: 2.303 (Simulation time: 01 hr 46 min 39 sec)
Heartbeat CPU 0 instructions: 2050000004 cycles: 890108444 heartbeat IPC: 2.226 cumulative IPC: 2.303 (Simulation time: 01 hr 47 min 10 sec)
Heartbeat CPU 0 instructions: 2060000000 cycles: 894419960 heartbeat IPC: 2.319 cumulative IPC: 2.303 (Simulation time: 01 hr 47 min 42 sec)
Heartbeat CPU 0 instructions: 2070000000 cycles: 898687409 heartbeat IPC: 2.343 cumulative IPC: 2.303 (Simulation time: 01 hr 48 min 13 sec)
Heartbeat CPU 0 instructions: 2080000000 cycles: 902937053 heartbeat IPC: 2.353 cumulative IPC: 2.304 (Simulation time: 01 hr 48 min 43 sec)
Heartbeat CPU 0 instructions: 2090000001 cycles: 907205824 heartbeat IPC: 2.343 cumulative IPC: 2.304 (Simulation time: 01 hr 49 min 14 sec)
Heartbeat CPU 0 instructions: 2100000004 cycles: 911516171 heartbeat IPC: 2.32 cumulative IPC: 2.304 (Simulation time: 01 hr 49 min 46 sec)
Heartbeat CPU 0 instructions: 2110000001 cycles: 915780110 heartbeat IPC: 2.345 cumulative IPC: 2.304 (Simulation time: 01 hr 50 min 16 sec)
Heartbeat CPU 0 instructions: 2120000003 cycles: 920063454 heartbeat IPC: 2.335 cumulative IPC: 2.304 (Simulation time: 01 hr 50 min 47 sec)
Heartbeat CPU 0 instructions: 2130000004 cycles: 924351952 heartbeat IPC: 2.332 cumulative IPC: 2.304 (Simulation time: 01 hr 51 min 18 sec)
Heartbeat CPU 0 instructions: 2140000000 cycles: 928690251 heartbeat IPC: 2.305 cumulative IPC: 2.304 (Simulation time: 01 hr 51 min 49 sec)
Heartbeat CPU 0 instructions: 2150000000 cycles: 933037224 heartbeat IPC: 2.3 cumulative IPC: 2.304 (Simulation time: 01 hr 52 min 21 sec)
Heartbeat CPU 0 instructions: 2160000002 cycles: 937429798 heartbeat IPC: 2.277 cumulative IPC: 2.304 (Simulation time: 01 hr 52 min 53 sec)
Heartbeat CPU 0 instructions: 2170000004 cycles: 941743550 heartbeat IPC: 2.318 cumulative IPC: 2.304 (Simulation time: 01 hr 53 min 26 sec)
Heartbeat CPU 0 instructions: 2180000003 cycles: 946092850 heartbeat IPC: 2.299 cumulative IPC: 2.304 (Simulation time: 01 hr 53 min 57 sec)
Heartbeat CPU 0 instructions: 2190000000 cycles: 950380126 heartbeat IPC: 2.332 cumulative IPC: 2.304 (Simulation time: 01 hr 54 min 28 sec)
Heartbeat CPU 0 instructions: 2200000002 cycles: 954922631 heartbeat IPC: 2.201 cumulative IPC: 2.304 (Simulation time: 01 hr 55 min 00 sec)
Heartbeat CPU 0 instructions: 2210000001 cycles: 959287946 heartbeat IPC: 2.291 cumulative IPC: 2.304 (Simulation time: 01 hr 55 min 32 sec)
Heartbeat CPU 0 instructions: 2220000001 cycles: 963646392 heartbeat IPC: 2.294 cumulative IPC: 2.304 (Simulation time: 01 hr 56 min 03 sec)
Heartbeat CPU 0 instructions: 2230000000 cycles: 967958936 heartbeat IPC: 2.319 cumulative IPC: 2.304 (Simulation time: 01 hr 56 min 35 sec)
Heartbeat CPU 0 instructions: 2240000002 cycles: 972287856 heartbeat IPC: 2.31 cumulative IPC: 2.304 (Simulation time: 01 hr 57 min 06 sec)
Heartbeat CPU 0 instructions: 2250000002 cycles: 976621778 heartbeat IPC: 2.307 cumulative IPC: 2.304 (Simulation time: 01 hr 57 min 40 sec)
Heartbeat CPU 0 instructions: 2260000004 cycles: 980961602 heartbeat IPC: 2.304 cumulative IPC: 2.304 (Simulation time: 01 hr 58 min 13 sec)
Heartbeat CPU 0 instructions: 2270000000 cycles: 985297314 heartbeat IPC: 2.306 cumulative IPC: 2.304 (Simulation time: 01 hr 58 min 46 sec)
Heartbeat CPU 0 instructions: 2280000000 cycles: 989619341 heartbeat IPC: 2.314 cumulative IPC: 2.304 (Simulation time: 01 hr 59 min 19 sec)
Heartbeat CPU 0 instructions: 2290000001 cycles: 993920795 heartbeat IPC: 2.325 cumulative IPC: 2.304 (Simulation time: 01 hr 59 min 51 sec)
Heartbeat CPU 0 instructions: 2300000002 cycles: 998280310 heartbeat IPC: 2.294 cumulative IPC: 2.304 (Simulation time: 02 hr 00 min 23 sec)
Heartbeat CPU 0 instructions: 2310000004 cycles: 1002724410 heartbeat IPC: 2.25 cumulative IPC: 2.304 (Simulation time: 02 hr 00 min 55 sec)
Heartbeat CPU 0 instructions: 2320000004 cycles: 1007033606 heartbeat IPC: 2.321 cumulative IPC: 2.304 (Simulation time: 02 hr 01 min 27 sec)
Heartbeat CPU 0 instructions: 2330000000 cycles: 1011310025 heartbeat IPC: 2.338 cumulative IPC: 2.304 (Simulation time: 02 hr 01 min 58 sec)
Heartbeat CPU 0 instructions: 2340000002 cycles: 1015632972 heartbeat IPC: 2.313 cumulative IPC: 2.304 (Simulation time: 02 hr 02 min 29 sec)
Heartbeat CPU 0 instructions: 2350000002 cycles: 1019918366 heartbeat IPC: 2.334 cumulative IPC: 2.304 (Simulation time: 02 hr 03 min 01 sec)
Heartbeat CPU 0 instructions: 2360000003 cycles: 1024505218 heartbeat IPC: 2.18 cumulative IPC: 2.304 (Simulation time: 02 hr 03 min 33 sec)
Heartbeat CPU 0 instructions: 2370000001 cycles: 1028815027 heartbeat IPC: 2.32 cumulative IPC: 2.304 (Simulation time: 02 hr 04 min 04 sec)
Heartbeat CPU 0 instructions: 2380000001 cycles: 1033131288 heartbeat IPC: 2.317 cumulative IPC: 2.304 (Simulation time: 02 hr 04 min 37 sec)
Heartbeat CPU 0 instructions: 2390000000 cycles: 1037434125 heartbeat IPC: 2.324 cumulative IPC: 2.304 (Simulation time: 02 hr 05 min 08 sec)
Heartbeat CPU 0 instructions: 2400000004 cycles: 1041757975 heartbeat IPC: 2.313 cumulative IPC: 2.304 (Simulation time: 02 hr 05 min 39 sec)
Heartbeat CPU 0 instructions: 2410000004 cycles: 1046073892 heartbeat IPC: 2.317 cumulative IPC: 2.304 (Simulation time: 02 hr 06 min 11 sec)
Heartbeat CPU 0 instructions: 2420000004 cycles: 1050413446 heartbeat IPC: 2.304 cumulative IPC: 2.304 (Simulation time: 02 hr 06 min 42 sec)
Heartbeat CPU 0 instructions: 2430000002 cycles: 1054725288 heartbeat IPC: 2.319 cumulative IPC: 2.304 (Simulation time: 02 hr 07 min 15 sec)
Heartbeat CPU 0 instructions: 2440000001 cycles: 1059006205 heartbeat IPC: 2.336 cumulative IPC: 2.304 (Simulation time: 02 hr 07 min 47 sec)
Heartbeat CPU 0 instructions: 2450000002 cycles: 1063329046 heartbeat IPC: 2.313 cumulative IPC: 2.304 (Simulation time: 02 hr 08 min 18 sec)
Heartbeat CPU 0 instructions: 2460000000 cycles: 1067653537 heartbeat IPC: 2.312 cumulative IPC: 2.304 (Simulation time: 02 hr 08 min 49 sec)
Heartbeat CPU 0 instructions: 2470000000 cycles: 1071963401 heartbeat IPC: 2.32 cumulative IPC: 2.304 (Simulation time: 02 hr 09 min 21 sec)
Heartbeat CPU 0 instructions: 2480000003 cycles: 1076302621 heartbeat IPC: 2.305 cumulative IPC: 2.304 (Simulation time: 02 hr 09 min 52 sec)
Heartbeat CPU 0 instructions: 2490000000 cycles: 1080644600 heartbeat IPC: 2.303 cumulative IPC: 2.304 (Simulation time: 02 hr 10 min 24 sec)
Heartbeat CPU 0 instructions: 2500000002 cycles: 1084964995 heartbeat IPC: 2.315 cumulative IPC: 2.304 (Simulation time: 02 hr 10 min 55 sec)
Heartbeat CPU 0 instructions: 2510000000 cycles: 1089523047 heartbeat IPC: 2.194 cumulative IPC: 2.304 (Simulation time: 02 hr 11 min 27 sec)
Heartbeat CPU 0 instructions: 2520000003 cycles: 1093824927 heartbeat IPC: 2.325 cumulative IPC: 2.304 (Simulation time: 02 hr 11 min 58 sec)
Heartbeat CPU 0 instructions: 2530000003 cycles: 1098177359 heartbeat IPC: 2.298 cumulative IPC: 2.304 (Simulation time: 02 hr 12 min 30 sec)
Heartbeat CPU 0 instructions: 2540000001 cycles: 1102502592 heartbeat IPC: 2.312 cumulative IPC: 2.304 (Simulation time: 02 hr 13 min 01 sec)
Heartbeat CPU 0 instructions: 2550000000 cycles: 1106836904 heartbeat IPC: 2.307 cumulative IPC: 2.304 (Simulation time: 02 hr 13 min 33 sec)
Heartbeat CPU 0 instructions: 2560000000 cycles: 1111185454 heartbeat IPC: 2.3 cumulative IPC: 2.304 (Simulation time: 02 hr 14 min 05 sec)
Heartbeat CPU 0 instructions: 2570000002 cycles: 1115507051 heartbeat IPC: 2.314 cumulative IPC: 2.304 (Simulation time: 02 hr 14 min 37 sec)
Heartbeat CPU 0 instructions: 2580000002 cycles: 1119832325 heartbeat IPC: 2.312 cumulative IPC: 2.304 (Simulation time: 02 hr 15 min 09 sec)
Heartbeat CPU 0 instructions: 2590000002 cycles: 1124142719 heartbeat IPC: 2.32 cumulative IPC: 2.304 (Simulation time: 02 hr 15 min 40 sec)
Heartbeat CPU 0 instructions: 2600000004 cycles: 1128455353 heartbeat IPC: 2.319 cumulative IPC: 2.304 (Simulation time: 02 hr 16 min 11 sec)
Heartbeat CPU 0 instructions: 2610000000 cycles: 1132819234 heartbeat IPC: 2.292 cumulative IPC: 2.304 (Simulation time: 02 hr 16 min 43 sec)
Heartbeat CPU 0 instructions: 2620000003 cycles: 1137116307 heartbeat IPC: 2.327 cumulative IPC: 2.304 (Simulation time: 02 hr 17 min 14 sec)
Heartbeat CPU 0 instructions: 2630000002 cycles: 1141438887 heartbeat IPC: 2.313 cumulative IPC: 2.304 (Simulation time: 02 hr 17 min 45 sec)
Heartbeat CPU 0 instructions: 2640000002 cycles: 1145744839 heartbeat IPC: 2.322 cumulative IPC: 2.304 (Simulation time: 02 hr 18 min 18 sec)
Heartbeat CPU 0 instructions: 2650000000 cycles: 1150057237 heartbeat IPC: 2.319 cumulative IPC: 2.304 (Simulation time: 02 hr 18 min 49 sec)
Heartbeat CPU 0 instructions: 2660000001 cycles: 1154657075 heartbeat IPC: 2.174 cumulative IPC: 2.304 (Simulation time: 02 hr 19 min 21 sec)
Heartbeat CPU 0 instructions: 2670000001 cycles: 1158936344 heartbeat IPC: 2.337 cumulative IPC: 2.304 (Simulation time: 02 hr 19 min 52 sec)
Heartbeat CPU 0 instructions: 2680000004 cycles: 1163242118 heartbeat IPC: 2.322 cumulative IPC: 2.304 (Simulation time: 02 hr 20 min 23 sec)
Heartbeat CPU 0 instructions: 2690000002 cycles: 1167541380 heartbeat IPC: 2.326 cumulative IPC: 2.304 (Simulation time: 02 hr 20 min 54 sec)
Heartbeat CPU 0 instructions: 2700000000 cycles: 1171884476 heartbeat IPC: 2.303 cumulative IPC: 2.304 (Simulation time: 02 hr 21 min 26 sec)
Heartbeat CPU 0 instructions: 2710000000 cycles: 1176195322 heartbeat IPC: 2.32 cumulative IPC: 2.304 (Simulation time: 02 hr 21 min 57 sec)
Heartbeat CPU 0 instructions: 2720000003 cycles: 1180512041 heartbeat IPC: 2.317 cumulative IPC: 2.304 (Simulation time: 02 hr 22 min 28 sec)
Heartbeat CPU 0 instructions: 2730000000 cycles: 1184813071 heartbeat IPC: 2.325 cumulative IPC: 2.304 (Simulation time: 02 hr 22 min 59 sec)
Heartbeat CPU 0 instructions: 2740000001 cycles: 1189124685 heartbeat IPC: 2.319 cumulative IPC: 2.304 (Simulation time: 02 hr 23 min 30 sec)
Heartbeat CPU 0 instructions: 2750000004 cycles: 1193417743 heartbeat IPC: 2.329 cumulative IPC: 2.304 (Simulation time: 02 hr 24 min 01 sec)
Heartbeat CPU 0 instructions: 2760000001 cycles: 1197723640 heartbeat IPC: 2.322 cumulative IPC: 2.304 (Simulation time: 02 hr 24 min 32 sec)
Heartbeat CPU 0 instructions: 2770000002 cycles: 1202060368 heartbeat IPC: 2.306 cumulative IPC: 2.304 (Simulation time: 02 hr 25 min 04 sec)
Heartbeat CPU 0 instructions: 2780000003 cycles: 1206385923 heartbeat IPC: 2.312 cumulative IPC: 2.304 (Simulation time: 02 hr 25 min 35 sec)
Heartbeat CPU 0 instructions: 2790000000 cycles: 1210726947 heartbeat IPC: 2.304 cumulative IPC: 2.304 (Simulation time: 02 hr 26 min 06 sec)
Heartbeat CPU 0 instructions: 2800000002 cycles: 1215020239 heartbeat IPC: 2.329 cumulative IPC: 2.304 (Simulation time: 02 hr 26 min 37 sec)
Heartbeat CPU 0 instructions: 2810000000 cycles: 1219578135 heartbeat IPC: 2.194 cumulative IPC: 2.304 (Simulation time: 02 hr 27 min 09 sec)
Heartbeat CPU 0 instructions: 2820000002 cycles: 1223908858 heartbeat IPC: 2.309 cumulative IPC: 2.304 (Simulation time: 02 hr 27 min 40 sec)
Heartbeat CPU 0 instructions: 2830000002 cycles: 1228223528 heartbeat IPC: 2.318 cumulative IPC: 2.304 (Simulation time: 02 hr 28 min 11 sec)
Heartbeat CPU 0 instructions: 2840000004 cycles: 1232507759 heartbeat IPC: 2.334 cumulative IPC: 2.304 (Simulation time: 02 hr 28 min 42 sec)
Heartbeat CPU 0 instructions: 2850000003 cycles: 1236851670 heartbeat IPC: 2.302 cumulative IPC: 2.304 (Simulation time: 02 hr 29 min 14 sec)
Heartbeat CPU 0 instructions: 2860000002 cycles: 1241160554 heartbeat IPC: 2.321 cumulative IPC: 2.304 (Simulation time: 02 hr 29 min 45 sec)
Heartbeat CPU 0 instructions: 2870000000 cycles: 1245494637 heartbeat IPC: 2.307 cumulative IPC: 2.304 (Simulation time: 02 hr 30 min 16 sec)
Heartbeat CPU 0 instructions: 2880000000 cycles: 1249833044 heartbeat IPC: 2.305 cumulative IPC: 2.304 (Simulation time: 02 hr 30 min 47 sec)
Heartbeat CPU 0 instructions: 2890000000 cycles: 1254173174 heartbeat IPC: 2.304 cumulative IPC: 2.304 (Simulation time: 02 hr 31 min 19 sec)
Heartbeat CPU 0 instructions: 2900000000 cycles: 1258488425 heartbeat IPC: 2.317 cumulative IPC: 2.304 (Simulation time: 02 hr 31 min 50 sec)
Heartbeat CPU 0 instructions: 2910000001 cycles: 1262816193 heartbeat IPC: 2.311 cumulative IPC: 2.304 (Simulation time: 02 hr 32 min 21 sec)
Heartbeat CPU 0 instructions: 2920000001 cycles: 1267118921 heartbeat IPC: 2.324 cumulative IPC: 2.304 (Simulation time: 02 hr 32 min 52 sec)
Heartbeat CPU 0 instructions: 2930000001 cycles: 1271461496 heartbeat IPC: 2.303 cumulative IPC: 2.304 (Simulation time: 02 hr 33 min 23 sec)
Heartbeat CPU 0 instructions: 2940000002 cycles: 1275771725 heartbeat IPC: 2.32 cumulative IPC: 2.304 (Simulation time: 02 hr 33 min 54 sec)
Heartbeat CPU 0 instructions: 2950000003 cycles: 1280094620 heartbeat IPC: 2.313 cumulative IPC: 2.305 (Simulation time: 02 hr 34 min 26 sec)
Heartbeat CPU 0 instructions: 2960000000 cycles: 1284418416 heartbeat IPC: 2.313 cumulative IPC: 2.305 (Simulation time: 02 hr 34 min 57 sec)
Heartbeat CPU 0 instructions: 2970000004 cycles: 1288971058 heartbeat IPC: 2.197 cumulative IPC: 2.304 (Simulation time: 02 hr 35 min 29 sec)
Heartbeat CPU 0 instructions: 2980000004 cycles: 1293269254 heartbeat IPC: 2.327 cumulative IPC: 2.304 (Simulation time: 02 hr 36 min 00 sec)
Heartbeat CPU 0 instructions: 2990000001 cycles: 1297563873 heartbeat IPC: 2.328 cumulative IPC: 2.304 (Simulation time: 02 hr 36 min 31 sec)
Heartbeat CPU 0 instructions: 3000000000 cycles: 1301914174 heartbeat IPC: 2.299 cumulative IPC: 2.304 (Simulation time: 02 hr 37 min 02 sec)
Heartbeat CPU 0 instructions: 3010000003 cycles: 1306217967 heartbeat IPC: 2.324 cumulative IPC: 2.304 (Simulation time: 02 hr 37 min 34 sec)
Heartbeat CPU 0 instructions: 3020000000 cycles: 1310540836 heartbeat IPC: 2.313 cumulative IPC: 2.304 (Simulation time: 02 hr 38 min 05 sec)
Heartbeat CPU 0 instructions: 3030000003 cycles: 1314863694 heartbeat IPC: 2.313 cumulative IPC: 2.304 (Simulation time: 02 hr 38 min 36 sec)
Heartbeat CPU 0 instructions: 3040000002 cycles: 1319183412 heartbeat IPC: 2.315 cumulative IPC: 2.304 (Simulation time: 02 hr 39 min 08 sec)
Heartbeat CPU 0 instructions: 3050000003 cycles: 1323514234 heartbeat IPC: 2.309 cumulative IPC: 2.304 (Simulation time: 02 hr 39 min 39 sec)
Heartbeat CPU 0 instructions: 3060000004 cycles: 1327859789 heartbeat IPC: 2.301 cumulative IPC: 2.304 (Simulation time: 02 hr 40 min 11 sec)
Heartbeat CPU 0 instructions: 3070000002 cycles: 1332181691 heartbeat IPC: 2.314 cumulative IPC: 2.304 (Simulation time: 02 hr 40 min 42 sec)
Heartbeat CPU 0 instructions: 3080000001 cycles: 1336521005 heartbeat IPC: 2.305 cumulative IPC: 2.304 (Simulation time: 02 hr 41 min 13 sec)
Heartbeat CPU 0 instructions: 3090000001 cycles: 1340836101 heartbeat IPC: 2.317 cumulative IPC: 2.305 (Simulation time: 02 hr 41 min 44 sec)
Heartbeat CPU 0 instructions: 3100000002 cycles: 1345144333 heartbeat IPC: 2.321 cumulative IPC: 2.305 (Simulation time: 02 hr 42 min 15 sec)
Heartbeat CPU 0 instructions: 3110000002 cycles: 1349454580 heartbeat IPC: 2.32 cumulative IPC: 2.305 (Simulation time: 02 hr 42 min 46 sec)
Heartbeat CPU 0 instructions: 3120000000 cycles: 1354005745 heartbeat IPC: 2.197 cumulative IPC: 2.304 (Simulation time: 02 hr 43 min 19 sec)
Heartbeat CPU 0 instructions: 3130000004 cycles: 1358332055 heartbeat IPC: 2.311 cumulative IPC: 2.304 (Simulation time: 02 hr 43 min 50 sec)
Heartbeat CPU 0 instructions: 3140000003 cycles: 1362610006 heartbeat IPC: 2.338 cumulative IPC: 2.304 (Simulation time: 02 hr 44 min 21 sec)
Heartbeat CPU 0 instructions: 3150000003 cycles: 1366942788 heartbeat IPC: 2.308 cumulative IPC: 2.304 (Simulation time: 02 hr 44 min 52 sec)
Heartbeat CPU 0 instructions: 3160000003 cycles: 1371273568 heartbeat IPC: 2.309 cumulative IPC: 2.304 (Simulation time: 02 hr 45 min 23 sec)
Heartbeat CPU 0 instructions: 3170000000 cycles: 1375606446 heartbeat IPC: 2.308 cumulative IPC: 2.304 (Simulation time: 02 hr 45 min 54 sec)
Heartbeat CPU 0 instructions: 3180000003 cycles: 1379920932 heartbeat IPC: 2.318 cumulative IPC: 2.304 (Simulation time: 02 hr 46 min 25 sec)
Heartbeat CPU 0 instructions: 3190000004 cycles: 1384265778 heartbeat IPC: 2.302 cumulative IPC: 2.304 (Simulation time: 02 hr 46 min 57 sec)
Heartbeat CPU 0 instructions: 3200000000 cycles: 1388575439 heartbeat IPC: 2.32 cumulative IPC: 2.305 (Simulation time: 02 hr 47 min 28 sec)
Heartbeat CPU 0 instructions: 3210000001 cycles: 1392932796 heartbeat IPC: 2.295 cumulative IPC: 2.304 (Simulation time: 02 hr 47 min 59 sec)
Heartbeat CPU 0 instructions: 3220000004 cycles: 1397252632 heartbeat IPC: 2.315 cumulative IPC: 2.305 (Simulation time: 02 hr 48 min 32 sec)
Heartbeat CPU 0 instructions: 3230000002 cycles: 1401569898 heartbeat IPC: 2.316 cumulative IPC: 2.305 (Simulation time: 02 hr 49 min 04 sec)
Heartbeat CPU 0 instructions: 3240000002 cycles: 1405896240 heartbeat IPC: 2.311 cumulative IPC: 2.305 (Simulation time: 02 hr 49 min 35 sec)
Heartbeat CPU 0 instructions: 3250000001 cycles: 1410217874 heartbeat IPC: 2.314 cumulative IPC: 2.305 (Simulation time: 02 hr 50 min 07 sec)
Heartbeat CPU 0 instructions: 3260000004 cycles: 1414542006 heartbeat IPC: 2.313 cumulative IPC: 2.305 (Simulation time: 02 hr 50 min 38 sec)
Heartbeat CPU 0 instructions: 3270000004 cycles: 1419073050 heartbeat IPC: 2.207 cumulative IPC: 2.304 (Simulation time: 02 hr 51 min 11 sec)
Heartbeat CPU 0 instructions: 3280000002 cycles: 1423430888 heartbeat IPC: 2.295 cumulative IPC: 2.304 (Simulation time: 02 hr 51 min 44 sec)
Heartbeat CPU 0 instructions: 3290000001 cycles: 1427764807 heartbeat IPC: 2.307 cumulative IPC: 2.304 (Simulation time: 02 hr 52 min 16 sec)
Heartbeat CPU 0 instructions: 3300000001 cycles: 1432079019 heartbeat IPC: 2.318 cumulative IPC: 2.304 (Simulation time: 02 hr 52 min 48 sec)
Heartbeat CPU 0 instructions: 3310000004 cycles: 1436403696 heartbeat IPC: 2.312 cumulative IPC: 2.304 (Simulation time: 02 hr 53 min 21 sec)
Heartbeat CPU 0 instructions: 3320000003 cycles: 1440726252 heartbeat IPC: 2.313 cumulative IPC: 2.304 (Simulation time: 02 hr 53 min 53 sec)
Heartbeat CPU 0 instructions: 3330000002 cycles: 1445052305 heartbeat IPC: 2.312 cumulative IPC: 2.304 (Simulation time: 02 hr 54 min 24 sec)
Heartbeat CPU 0 instructions: 3340000002 cycles: 1449391839 heartbeat IPC: 2.304 cumulative IPC: 2.304 (Simulation time: 02 hr 54 min 56 sec)
Heartbeat CPU 0 instructions: 3350000001 cycles: 1453678917 heartbeat IPC: 2.333 cumulative IPC: 2.304 (Simulation time: 02 hr 55 min 28 sec)
Heartbeat CPU 0 instructions: 3360000004 cycles: 1458005122 heartbeat IPC: 2.311 cumulative IPC: 2.305 (Simulation time: 02 hr 56 min 00 sec)
Heartbeat CPU 0 instructions: 3370000001 cycles: 1462320179 heartbeat IPC: 2.317 cumulative IPC: 2.305 (Simulation time: 02 hr 56 min 32 sec)
Heartbeat CPU 0 instructions: 3380000000 cycles: 1466659031 heartbeat IPC: 2.305 cumulative IPC: 2.305 (Simulation time: 02 hr 57 min 05 sec)
Heartbeat CPU 0 instructions: 3390000002 cycles: 1471012083 heartbeat IPC: 2.297 cumulative IPC: 2.305 (Simulation time: 02 hr 57 min 38 sec)
Heartbeat CPU 0 instructions: 3400000000 cycles: 1475323049 heartbeat IPC: 2.32 cumulative IPC: 2.305 (Simulation time: 02 hr 58 min 11 sec)
Heartbeat CPU 0 instructions: 3410000000 cycles: 1479642894 heartbeat IPC: 2.315 cumulative IPC: 2.305 (Simulation time: 02 hr 58 min 45 sec)
Heartbeat CPU 0 instructions: 3420000003 cycles: 1484231001 heartbeat IPC: 2.18 cumulative IPC: 2.304 (Simulation time: 02 hr 59 min 19 sec)
Heartbeat CPU 0 instructions: 3430000001 cycles: 1488572912 heartbeat IPC: 2.303 cumulative IPC: 2.304 (Simulation time: 02 hr 59 min 52 sec)
Heartbeat CPU 0 instructions: 3440000002 cycles: 1492866429 heartbeat IPC: 2.329 cumulative IPC: 2.304 (Simulation time: 03 hr 00 min 25 sec)
Heartbeat CPU 0 instructions: 3450000000 cycles: 1497150648 heartbeat IPC: 2.334 cumulative IPC: 2.304 (Simulation time: 03 hr 00 min 58 sec)
Heartbeat CPU 0 instructions: 3460000001 cycles: 1501460686 heartbeat IPC: 2.32 cumulative IPC: 2.304 (Simulation time: 03 hr 01 min 34 sec)
Heartbeat CPU 0 instructions: 3470000000 cycles: 1505760489 heartbeat IPC: 2.326 cumulative IPC: 2.304 (Simulation time: 03 hr 02 min 09 sec)
Heartbeat CPU 0 instructions: 3480000002 cycles: 1510068760 heartbeat IPC: 2.321 cumulative IPC: 2.305 (Simulation time: 03 hr 02 min 43 sec)
Heartbeat CPU 0 instructions: 3490000001 cycles: 1514394493 heartbeat IPC: 2.312 cumulative IPC: 2.305 (Simulation time: 03 hr 03 min 16 sec)
Heartbeat CPU 0 instructions: 3500000001 cycles: 1518751330 heartbeat IPC: 2.295 cumulative IPC: 2.305 (Simulation time: 03 hr 03 min 49 sec)
Heartbeat CPU 0 instructions: 3510000001 cycles: 1523092873 heartbeat IPC: 2.303 cumulative IPC: 2.305 (Simulation time: 03 hr 04 min 25 sec)
Heartbeat CPU 0 instructions: 3520000002 cycles: 1527412735 heartbeat IPC: 2.315 cumulative IPC: 2.305 (Simulation time: 03 hr 04 min 59 sec)
Heartbeat CPU 0 instructions: 3530000002 cycles: 1531768407 heartbeat IPC: 2.296 cumulative IPC: 2.305 (Simulation time: 03 hr 05 min 36 sec)
Heartbeat CPU 0 instructions: 3540000004 cycles: 1536097256 heartbeat IPC: 2.31 cumulative IPC: 2.305 (Simulation time: 03 hr 06 min 11 sec)
Heartbeat CPU 0 instructions: 3550000001 cycles: 1540423002 heartbeat IPC: 2.312 cumulative IPC: 2.305 (Simulation time: 03 hr 06 min 46 sec)
Heartbeat CPU 0 instructions: 3560000002 cycles: 1544717876 heartbeat IPC: 2.328 cumulative IPC: 2.305 (Simulation time: 03 hr 07 min 20 sec)
Heartbeat CPU 0 instructions: 3570000002 cycles: 1549033367 heartbeat IPC: 2.317 cumulative IPC: 2.305 (Simulation time: 03 hr 07 min 55 sec)
Heartbeat CPU 0 instructions: 3580000002 cycles: 1553615540 heartbeat IPC: 2.182 cumulative IPC: 2.304 (Simulation time: 03 hr 08 min 30 sec)
Heartbeat CPU 0 instructions: 3590000004 cycles: 1557942495 heartbeat IPC: 2.311 cumulative IPC: 2.304 (Simulation time: 03 hr 09 min 04 sec)
Heartbeat CPU 0 instructions: 3600000001 cycles: 1562266261 heartbeat IPC: 2.313 cumulative IPC: 2.304 (Simulation time: 03 hr 09 min 39 sec)
Heartbeat CPU 0 instructions: 3610000002 cycles: 1566597872 heartbeat IPC: 2.309 cumulative IPC: 2.304 (Simulation time: 03 hr 10 min 12 sec)
Heartbeat CPU 0 instructions: 3620000003 cycles: 1570901022 heartbeat IPC: 2.324 cumulative IPC: 2.304 (Simulation time: 03 hr 10 min 46 sec)
Heartbeat CPU 0 instructions: 3630000001 cycles: 1575244924 heartbeat IPC: 2.302 cumulative IPC: 2.304 (Simulation time: 03 hr 11 min 20 sec)
Heartbeat CPU 0 instructions: 3640000003 cycles: 1579537745 heartbeat IPC: 2.329 cumulative IPC: 2.304 (Simulation time: 03 hr 11 min 53 sec)
Heartbeat CPU 0 instructions: 3650000000 cycles: 1583862697 heartbeat IPC: 2.312 cumulative IPC: 2.304 (Simulation time: 03 hr 12 min 27 sec)
Heartbeat CPU 0 instructions: 3660000004 cycles: 1588145558 heartbeat IPC: 2.335 cumulative IPC: 2.305 (Simulation time: 03 hr 13 min 01 sec)
Heartbeat CPU 0 instructions: 3670000000 cycles: 1592436695 heartbeat IPC: 2.33 cumulative IPC: 2.305 (Simulation time: 03 hr 13 min 35 sec)
Heartbeat CPU 0 instructions: 3680000000 cycles: 1596723773 heartbeat IPC: 2.333 cumulative IPC: 2.305 (Simulation time: 03 hr 14 min 09 sec)
Heartbeat CPU 0 instructions: 3690000000 cycles: 1601045278 heartbeat IPC: 2.314 cumulative IPC: 2.305 (Simulation time: 03 hr 14 min 42 sec)
Heartbeat CPU 0 instructions: 3700000000 cycles: 1605370893 heartbeat IPC: 2.312 cumulative IPC: 2.305 (Simulation time: 03 hr 15 min 16 sec)
Heartbeat CPU 0 instructions: 3710000001 cycles: 1609701586 heartbeat IPC: 2.309 cumulative IPC: 2.305 (Simulation time: 03 hr 15 min 50 sec)
Heartbeat CPU 0 instructions: 3720000001 cycles: 1614049861 heartbeat IPC: 2.3 cumulative IPC: 2.305 (Simulation time: 03 hr 16 min 23 sec)
Heartbeat CPU 0 instructions: 3730000004 cycles: 1618570199 heartbeat IPC: 2.212 cumulative IPC: 2.305 (Simulation time: 03 hr 16 min 58 sec)
Heartbeat CPU 0 instructions: 3740000002 cycles: 1622911927 heartbeat IPC: 2.303 cumulative IPC: 2.304 (Simulation time: 03 hr 17 min 32 sec)
Heartbeat CPU 0 instructions: 3750000003 cycles: 1627234782 heartbeat IPC: 2.313 cumulative IPC: 2.305 (Simulation time: 03 hr 18 min 05 sec)
Heartbeat CPU 0 instructions: 3760000000 cycles: 1631552263 heartbeat IPC: 2.316 cumulative IPC: 2.305 (Simulation time: 03 hr 18 min 39 sec)
Heartbeat CPU 0 instructions: 3770000000 cycles: 1635873643 heartbeat IPC: 2.314 cumulative IPC: 2.305 (Simulation time: 03 hr 19 min 13 sec)
Heartbeat CPU 0 instructions: 3780000004 cycles: 1640186835 heartbeat IPC: 2.318 cumulative IPC: 2.305 (Simulation time: 03 hr 19 min 46 sec)
Heartbeat CPU 0 instructions: 3790000002 cycles: 1644479535 heartbeat IPC: 2.33 cumulative IPC: 2.305 (Simulation time: 03 hr 20 min 20 sec)
Heartbeat CPU 0 instructions: 3800000001 cycles: 1648815999 heartbeat IPC: 2.306 cumulative IPC: 2.305 (Simulation time: 03 hr 20 min 54 sec)
Heartbeat CPU 0 instructions: 3810000002 cycles: 1653107571 heartbeat IPC: 2.33 cumulative IPC: 2.305 (Simulation time: 03 hr 21 min 28 sec)
Heartbeat CPU 0 instructions: 3820000004 cycles: 1657431575 heartbeat IPC: 2.313 cumulative IPC: 2.305 (Simulation time: 03 hr 22 min 02 sec)
Heartbeat CPU 0 instructions: 3830000002 cycles: 1661783433 heartbeat IPC: 2.298 cumulative IPC: 2.305 (Simulation time: 03 hr 22 min 37 sec)
Heartbeat CPU 0 instructions: 3840000003 cycles: 1666116137 heartbeat IPC: 2.308 cumulative IPC: 2.305 (Simulation time: 03 hr 23 min 11 sec)
Heartbeat CPU 0 instructions: 3850000000 cycles: 1670455881 heartbeat IPC: 2.304 cumulative IPC: 2.305 (Simulation time: 03 hr 23 min 46 sec)
Heartbeat CPU 0 instructions: 3860000000 cycles: 1674805127 heartbeat IPC: 2.299 cumulative IPC: 2.305 (Simulation time: 03 hr 24 min 20 sec)
Heartbeat CPU 0 instructions: 3870000001 cycles: 1679150468 heartbeat IPC: 2.301 cumulative IPC: 2.305 (Simulation time: 03 hr 24 min 54 sec)
Heartbeat CPU 0 instructions: 3880000003 cycles: 1683716709 heartbeat IPC: 2.19 cumulative IPC: 2.304 (Simulation time: 03 hr 25 min 29 sec)
Heartbeat CPU 0 instructions: 3890000002 cycles: 1688022006 heartbeat IPC: 2.323 cumulative IPC: 2.304 (Simulation time: 03 hr 26 min 03 sec)
Heartbeat CPU 0 instructions: 3900000003 cycles: 1692319509 heartbeat IPC: 2.327 cumulative IPC: 2.305 (Simulation time: 03 hr 26 min 37 sec)
Heartbeat CPU 0 instructions: 3910000003 cycles: 1696649402 heartbeat IPC: 2.31 cumulative IPC: 2.305 (Simulation time: 03 hr 27 min 11 sec)
Heartbeat CPU 0 instructions: 3920000000 cycles: 1701003082 heartbeat IPC: 2.297 cumulative IPC: 2.305 (Simulation time: 03 hr 27 min 46 sec)
Heartbeat CPU 0 instructions: 3930000002 cycles: 1705334621 heartbeat IPC: 2.309 cumulative IPC: 2.305 (Simulation time: 03 hr 28 min 22 sec)
Heartbeat CPU 0 instructions: 3940000004 cycles: 1709674615 heartbeat IPC: 2.304 cumulative IPC: 2.305 (Simulation time: 03 hr 28 min 57 sec)
Heartbeat CPU 0 instructions: 3950000000 cycles: 1714012765 heartbeat IPC: 2.305 cumulative IPC: 2.305 (Simulation time: 03 hr 29 min 31 sec)
Heartbeat CPU 0 instructions: 3960000000 cycles: 1718298977 heartbeat IPC: 2.333 cumulative IPC: 2.305 (Simulation time: 03 hr 30 min 05 sec)
Heartbeat CPU 0 instructions: 3970000000 cycles: 1722613012 heartbeat IPC: 2.318 cumulative IPC: 2.305 (Simulation time: 03 hr 30 min 39 sec)
Heartbeat CPU 0 instructions: 3980000000 cycles: 1726935332 heartbeat IPC: 2.314 cumulative IPC: 2.305 (Simulation time: 03 hr 31 min 12 sec)
Heartbeat CPU 0 instructions: 3990000001 cycles: 1731269884 heartbeat IPC: 2.307 cumulative IPC: 2.305 (Simulation time: 03 hr 31 min 47 sec)
*** Reached end of trace: (0, "traces/607.cactuBSSN_s-3477B.champsimtrace.xz")
Heartbeat CPU 0 instructions: 4000000000 cycles: 1735600350 heartbeat IPC: 2.309 cumulative IPC: 2.305 (Simulation time: 03 hr 32 min 21 sec)
Heartbeat CPU 0 instructions: 4010000000 cycles: 1740128245 heartbeat IPC: 2.209 cumulative IPC: 2.304 (Simulation time: 03 hr 32 min 56 sec)
Heartbeat CPU 0 instructions: 4020000001 cycles: 1744433581 heartbeat IPC: 2.323 cumulative IPC: 2.304 (Simulation time: 03 hr 33 min 29 sec)
Heartbeat CPU 0 instructions: 4030000003 cycles: 1748718935 heartbeat IPC: 2.334 cumulative IPC: 2.305 (Simulation time: 03 hr 34 min 03 sec)
Heartbeat CPU 0 instructions: 4040000002 cycles: 1752999954 heartbeat IPC: 2.336 cumulative IPC: 2.305 (Simulation time: 03 hr 34 min 38 sec)
Heartbeat CPU 0 instructions: 4050000003 cycles: 1757491829 heartbeat IPC: 2.226 cumulative IPC: 2.304 (Simulation time: 03 hr 35 min 13 sec)
Heartbeat CPU 0 instructions: 4060000004 cycles: 1761802546 heartbeat IPC: 2.32 cumulative IPC: 2.304 (Simulation time: 03 hr 35 min 47 sec)
Heartbeat CPU 0 instructions: 4070000004 cycles: 1766071380 heartbeat IPC: 2.343 cumulative IPC: 2.305 (Simulation time: 03 hr 36 min 21 sec)
Heartbeat CPU 0 instructions: 4080000004 cycles: 1770321729 heartbeat IPC: 2.353 cumulative IPC: 2.305 (Simulation time: 03 hr 36 min 55 sec)
Heartbeat CPU 0 instructions: 4090000000 cycles: 1774590904 heartbeat IPC: 2.342 cumulative IPC: 2.305 (Simulation time: 03 hr 37 min 29 sec)
Heartbeat CPU 0 instructions: 4100000003 cycles: 1778900976 heartbeat IPC: 2.32 cumulative IPC: 2.305 (Simulation time: 03 hr 38 min 03 sec)
Heartbeat CPU 0 instructions: 4110000000 cycles: 1783165580 heartbeat IPC: 2.345 cumulative IPC: 2.305 (Simulation time: 03 hr 38 min 37 sec)
Heartbeat CPU 0 instructions: 4120000002 cycles: 1787449904 heartbeat IPC: 2.334 cumulative IPC: 2.305 (Simulation time: 03 hr 39 min 12 sec)
Heartbeat CPU 0 instructions: 4130000003 cycles: 1791738434 heartbeat IPC: 2.332 cumulative IPC: 2.305 (Simulation time: 03 hr 39 min 47 sec)
Heartbeat CPU 0 instructions: 4140000004 cycles: 1796076277 heartbeat IPC: 2.305 cumulative IPC: 2.305 (Simulation time: 03 hr 40 min 21 sec)
Heartbeat CPU 0 instructions: 4150000003 cycles: 1800423041 heartbeat IPC: 2.301 cumulative IPC: 2.305 (Simulation time: 03 hr 40 min 55 sec)
Heartbeat CPU 0 instructions: 4160000001 cycles: 1804814504 heartbeat IPC: 2.277 cumulative IPC: 2.305 (Simulation time: 03 hr 41 min 29 sec)
Heartbeat CPU 0 instructions: 4170000003 cycles: 1809127975 heartbeat IPC: 2.318 cumulative IPC: 2.305 (Simulation time: 03 hr 42 min 04 sec)
Heartbeat CPU 0 instructions: 4180000002 cycles: 1813476640 heartbeat IPC: 2.3 cumulative IPC: 2.305 (Simulation time: 03 hr 42 min 38 sec)
Heartbeat CPU 0 instructions: 4190000004 cycles: 1817763279 heartbeat IPC: 2.333 cumulative IPC: 2.305 (Simulation time: 03 hr 43 min 12 sec)
Heartbeat CPU 0 instructions: 4200000001 cycles: 1822306081 heartbeat IPC: 2.201 cumulative IPC: 2.305 (Simulation time: 03 hr 43 min 47 sec)
Heartbeat CPU 0 instructions: 4210000000 cycles: 1826671251 heartbeat IPC: 2.291 cumulative IPC: 2.305 (Simulation time: 03 hr 44 min 21 sec)
Heartbeat CPU 0 instructions: 4220000000 cycles: 1831029682 heartbeat IPC: 2.294 cumulative IPC: 2.305 (Simulation time: 03 hr 44 min 55 sec)
Heartbeat CPU 0 instructions: 4230000004 cycles: 1835342287 heartbeat IPC: 2.319 cumulative IPC: 2.305 (Simulation time: 03 hr 45 min 30 sec)
Heartbeat CPU 0 instructions: 4240000001 cycles: 1839671416 heartbeat IPC: 2.31 cumulative IPC: 2.305 (Simulation time: 03 hr 46 min 04 sec)
Heartbeat CPU 0 instructions: 4250000001 cycles: 1844004953 heartbeat IPC: 2.308 cumulative IPC: 2.305 (Simulation time: 03 hr 46 min 37 sec)
Heartbeat CPU 0 instructions: 4260000003 cycles: 1848345342 heartbeat IPC: 2.304 cumulative IPC: 2.305 (Simulation time: 03 hr 47 min 12 sec)
Heartbeat CPU 0 instructions: 4270000004 cycles: 1852681000 heartbeat IPC: 2.306 cumulative IPC: 2.305 (Simulation time: 03 hr 47 min 45 sec)
Heartbeat CPU 0 instructions: 4280000004 cycles: 1857002442 heartbeat IPC: 2.314 cumulative IPC: 2.305 (Simulation time: 03 hr 48 min 19 sec)
Heartbeat CPU 0 instructions: 4290000000 cycles: 1861305260 heartbeat IPC: 2.324 cumulative IPC: 2.305 (Simulation time: 03 hr 48 min 53 sec)
Heartbeat CPU 0 instructions: 4300000001 cycles: 1865664495 heartbeat IPC: 2.294 cumulative IPC: 2.305 (Simulation time: 03 hr 49 min 27 sec)
Heartbeat CPU 0 instructions: 4310000003 cycles: 1870108667 heartbeat IPC: 2.25 cumulative IPC: 2.305 (Simulation time: 03 hr 50 min 01 sec)
Heartbeat CPU 0 instructions: 4320000003 cycles: 1874417462 heartbeat IPC: 2.321 cumulative IPC: 2.305 (Simulation time: 03 hr 50 min 34 sec)
Heartbeat CPU 0 instructions: 4330000001 cycles: 1878693856 heartbeat IPC: 2.338 cumulative IPC: 2.305 (Simulation time: 03 hr 51 min 08 sec)
Heartbeat CPU 0 instructions: 4340000001 cycles: 1883017207 heartbeat IPC: 2.313 cumulative IPC: 2.305 (Simulation time: 03 hr 51 min 42 sec)
Heartbeat CPU 0 instructions: 4350000001 cycles: 1887302096 heartbeat IPC: 2.334 cumulative IPC: 2.305 (Simulation time: 03 hr 52 min 15 sec)
Heartbeat CPU 0 instructions: 4360000002 cycles: 1891890672 heartbeat IPC: 2.179 cumulative IPC: 2.305 (Simulation time: 03 hr 52 min 51 sec)
Heartbeat CPU 0 instructions: 4370000000 cycles: 1896200407 heartbeat IPC: 2.32 cumulative IPC: 2.305 (Simulation time: 03 hr 53 min 26 sec)
Heartbeat CPU 0 instructions: 4380000000 cycles: 1900517320 heartbeat IPC: 2.316 cumulative IPC: 2.305 (Simulation time: 03 hr 53 min 59 sec)
Heartbeat CPU 0 instructions: 4390000004 cycles: 1904821356 heartbeat IPC: 2.323 cumulative IPC: 2.305 (Simulation time: 03 hr 54 min 33 sec)
Heartbeat CPU 0 instructions: 4400000004 cycles: 1909146527 heartbeat IPC: 2.312 cumulative IPC: 2.305 (Simulation time: 03 hr 55 min 07 sec)
Heartbeat CPU 0 instructions: 4410000003 cycles: 1913462642 heartbeat IPC: 2.317 cumulative IPC: 2.305 (Simulation time: 03 hr 55 min 40 sec)
Heartbeat CPU 0 instructions: 4420000003 cycles: 1917801966 heartbeat IPC: 2.305 cumulative IPC: 2.305 (Simulation time: 03 hr 56 min 13 sec)
Heartbeat CPU 0 instructions: 4430000001 cycles: 1922113388 heartbeat IPC: 2.319 cumulative IPC: 2.305 (Simulation time: 03 hr 56 min 44 sec)
Heartbeat CPU 0 instructions: 4440000000 cycles: 1926394570 heartbeat IPC: 2.336 cumulative IPC: 2.305 (Simulation time: 03 hr 57 min 17 sec)
Heartbeat CPU 0 instructions: 4450000001 cycles: 1930716901 heartbeat IPC: 2.314 cumulative IPC: 2.305 (Simulation time: 03 hr 57 min 50 sec)
Heartbeat CPU 0 instructions: 4460000004 cycles: 1935041408 heartbeat IPC: 2.312 cumulative IPC: 2.305 (Simulation time: 03 hr 58 min 23 sec)
Heartbeat CPU 0 instructions: 4470000004 cycles: 1939351192 heartbeat IPC: 2.32 cumulative IPC: 2.305 (Simulation time: 03 hr 58 min 56 sec)
Heartbeat CPU 0 instructions: 4480000002 cycles: 1943689796 heartbeat IPC: 2.305 cumulative IPC: 2.305 (Simulation time: 03 hr 59 min 29 sec)
Heartbeat CPU 0 instructions: 4490000004 cycles: 1948031236 heartbeat IPC: 2.303 cumulative IPC: 2.305 (Simulation time: 04 hr 00 min 00 sec)
Heartbeat CPU 0 instructions: 4500000001 cycles: 1952351740 heartbeat IPC: 2.315 cumulative IPC: 2.305 (Simulation time: 04 hr 00 min 31 sec)
Heartbeat CPU 0 instructions: 4510000003 cycles: 1956909773 heartbeat IPC: 2.194 cumulative IPC: 2.305 (Simulation time: 04 hr 01 min 04 sec)
Heartbeat CPU 0 instructions: 4520000002 cycles: 1961212570 heartbeat IPC: 2.324 cumulative IPC: 2.305 (Simulation time: 04 hr 01 min 35 sec)
Heartbeat CPU 0 instructions: 4530000002 cycles: 1965565154 heartbeat IPC: 2.297 cumulative IPC: 2.305 (Simulation time: 04 hr 02 min 06 sec)
Heartbeat CPU 0 instructions: 4540000000 cycles: 1969890797 heartbeat IPC: 2.312 cumulative IPC: 2.305 (Simulation time: 04 hr 02 min 38 sec)
Heartbeat CPU 0 instructions: 4550000000 cycles: 1974224755 heartbeat IPC: 2.307 cumulative IPC: 2.305 (Simulation time: 04 hr 03 min 09 sec)
Heartbeat CPU 0 instructions: 4560000004 cycles: 1978573695 heartbeat IPC: 2.299 cumulative IPC: 2.305 (Simulation time: 04 hr 03 min 40 sec)
Heartbeat CPU 0 instructions: 4570000001 cycles: 1982895151 heartbeat IPC: 2.314 cumulative IPC: 2.305 (Simulation time: 04 hr 04 min 12 sec)
Heartbeat CPU 0 instructions: 4580000001 cycles: 1987220760 heartbeat IPC: 2.312 cumulative IPC: 2.305 (Simulation time: 04 hr 04 min 45 sec)
Heartbeat CPU 0 instructions: 4590000001 cycles: 1991530854 heartbeat IPC: 2.32 cumulative IPC: 2.305 (Simulation time: 04 hr 05 min 16 sec)
Heartbeat CPU 0 instructions: 4600000003 cycles: 1995843038 heartbeat IPC: 2.319 cumulative IPC: 2.305 (Simulation time: 04 hr 05 min 47 sec)
Heartbeat CPU 0 instructions: 4610000004 cycles: 2000205245 heartbeat IPC: 2.292 cumulative IPC: 2.305 (Simulation time: 04 hr 06 min 19 sec)
Heartbeat CPU 0 instructions: 4620000002 cycles: 2004502532 heartbeat IPC: 2.327 cumulative IPC: 2.305 (Simulation time: 04 hr 06 min 50 sec)
Heartbeat CPU 0 instructions: 4630000001 cycles: 2008824662 heartbeat IPC: 2.314 cumulative IPC: 2.305 (Simulation time: 04 hr 07 min 21 sec)
Heartbeat CPU 0 instructions: 4640000001 cycles: 2013129765 heartbeat IPC: 2.323 cumulative IPC: 2.305 (Simulation time: 04 hr 07 min 53 sec)
Heartbeat CPU 0 instructions: 4650000000 cycles: 2017442073 heartbeat IPC: 2.319 cumulative IPC: 2.305 (Simulation time: 04 hr 08 min 24 sec)
Heartbeat CPU 0 instructions: 4660000000 cycles: 2022042553 heartbeat IPC: 2.174 cumulative IPC: 2.305 (Simulation time: 04 hr 08 min 56 sec)
Heartbeat CPU 0 instructions: 4670000000 cycles: 2026321564 heartbeat IPC: 2.337 cumulative IPC: 2.305 (Simulation time: 04 hr 09 min 28 sec)
Heartbeat CPU 0 instructions: 4680000003 cycles: 2030627214 heartbeat IPC: 2.323 cumulative IPC: 2.305 (Simulation time: 04 hr 09 min 59 sec)
Heartbeat CPU 0 instructions: 4690000001 cycles: 2034925070 heartbeat IPC: 2.327 cumulative IPC: 2.305 (Simulation time: 04 hr 10 min 30 sec)
Heartbeat CPU 0 instructions: 4700000004 cycles: 2039268217 heartbeat IPC: 2.302 cumulative IPC: 2.305 (Simulation time: 04 hr 11 min 02 sec)
Heartbeat CPU 0 instructions: 4710000004 cycles: 2043579560 heartbeat IPC: 2.319 cumulative IPC: 2.305 (Simulation time: 04 hr 11 min 33 sec)
Heartbeat CPU 0 instructions: 4720000002 cycles: 2047895871 heartbeat IPC: 2.317 cumulative IPC: 2.305 (Simulation time: 04 hr 12 min 04 sec)
Heartbeat CPU 0 instructions: 4730000004 cycles: 2052197447 heartbeat IPC: 2.325 cumulative IPC: 2.305 (Simulation time: 04 hr 12 min 35 sec)
Heartbeat CPU 0 instructions: 4740000000 cycles: 2056509570 heartbeat IPC: 2.319 cumulative IPC: 2.305 (Simulation time: 04 hr 13 min 07 sec)
Heartbeat CPU 0 instructions: 4750000003 cycles: 2060803318 heartbeat IPC: 2.329 cumulative IPC: 2.305 (Simulation time: 04 hr 13 min 38 sec)
Heartbeat CPU 0 instructions: 4760000000 cycles: 2065109127 heartbeat IPC: 2.322 cumulative IPC: 2.305 (Simulation time: 04 hr 14 min 09 sec)
Heartbeat CPU 0 instructions: 4770000000 cycles: 2069446270 heartbeat IPC: 2.306 cumulative IPC: 2.305 (Simulation time: 04 hr 14 min 41 sec)
Heartbeat CPU 0 instructions: 4780000002 cycles: 2073771793 heartbeat IPC: 2.312 cumulative IPC: 2.305 (Simulation time: 04 hr 15 min 12 sec)
Heartbeat CPU 0 instructions: 4790000004 cycles: 2078112468 heartbeat IPC: 2.304 cumulative IPC: 2.305 (Simulation time: 04 hr 15 min 44 sec)
Heartbeat CPU 0 instructions: 4800000001 cycles: 2082405529 heartbeat IPC: 2.329 cumulative IPC: 2.305 (Simulation time: 04 hr 16 min 15 sec)
Heartbeat CPU 0 instructions: 4810000004 cycles: 2086964076 heartbeat IPC: 2.194 cumulative IPC: 2.305 (Simulation time: 04 hr 16 min 47 sec)
Heartbeat CPU 0 instructions: 4820000001 cycles: 2091295853 heartbeat IPC: 2.309 cumulative IPC: 2.305 (Simulation time: 04 hr 17 min 19 sec)
Heartbeat CPU 0 instructions: 4830000001 cycles: 2095610483 heartbeat IPC: 2.318 cumulative IPC: 2.305 (Simulation time: 04 hr 17 min 50 sec)
Heartbeat CPU 0 instructions: 4840000003 cycles: 2099895214 heartbeat IPC: 2.334 cumulative IPC: 2.305 (Simulation time: 04 hr 18 min 21 sec)
Heartbeat CPU 0 instructions: 4850000002 cycles: 2104239445 heartbeat IPC: 2.302 cumulative IPC: 2.305 (Simulation time: 04 hr 18 min 52 sec)
Heartbeat CPU 0 instructions: 4860000001 cycles: 2108549164 heartbeat IPC: 2.32 cumulative IPC: 2.305 (Simulation time: 04 hr 19 min 24 sec)
Heartbeat CPU 0 instructions: 4870000004 cycles: 2112884513 heartbeat IPC: 2.307 cumulative IPC: 2.305 (Simulation time: 04 hr 19 min 55 sec)
Heartbeat CPU 0 instructions: 4880000003 cycles: 2117223215 heartbeat IPC: 2.305 cumulative IPC: 2.305 (Simulation time: 04 hr 20 min 27 sec)
Heartbeat CPU 0 instructions: 4890000004 cycles: 2121563430 heartbeat IPC: 2.304 cumulative IPC: 2.305 (Simulation time: 04 hr 21 min 00 sec)
Heartbeat CPU 0 instructions: 4900000004 cycles: 2125878691 heartbeat IPC: 2.317 cumulative IPC: 2.305 (Simulation time: 04 hr 21 min 33 sec)
Heartbeat CPU 0 instructions: 4910000000 cycles: 2130206558 heartbeat IPC: 2.311 cumulative IPC: 2.305 (Simulation time: 04 hr 22 min 06 sec)
Heartbeat CPU 0 instructions: 4920000000 cycles: 2134509941 heartbeat IPC: 2.324 cumulative IPC: 2.305 (Simulation time: 04 hr 22 min 43 sec)
Heartbeat CPU 0 instructions: 4930000000 cycles: 2138852411 heartbeat IPC: 2.303 cumulative IPC: 2.305 (Simulation time: 04 hr 23 min 20 sec)
Heartbeat CPU 0 instructions: 4940000001 cycles: 2143162640 heartbeat IPC: 2.32 cumulative IPC: 2.305 (Simulation time: 04 hr 23 min 56 sec)
Heartbeat CPU 0 instructions: 4950000002 cycles: 2147485550 heartbeat IPC: 2.313 cumulative IPC: 2.305 (Simulation time: 04 hr 24 min 29 sec)
Heartbeat CPU 0 instructions: 4960000004 cycles: 2151809572 heartbeat IPC: 2.313 cumulative IPC: 2.305 (Simulation time: 04 hr 25 min 03 sec)
Heartbeat CPU 0 instructions: 4970000003 cycles: 2156361493 heartbeat IPC: 2.197 cumulative IPC: 2.305 (Simulation time: 04 hr 25 min 38 sec)
Heartbeat CPU 0 instructions: 4980000003 cycles: 2160658894 heartbeat IPC: 2.327 cumulative IPC: 2.305 (Simulation time: 04 hr 26 min 12 sec)
Heartbeat CPU 0 instructions: 4990000000 cycles: 2164954598 heartbeat IPC: 2.328 cumulative IPC: 2.305 (Simulation time: 04 hr 26 min 47 sec)
Heartbeat CPU 0 instructions: 5000000004 cycles: 2169304920 heartbeat IPC: 2.299 cumulative IPC: 2.305 (Simulation time: 04 hr 27 min 22 sec)
Heartbeat CPU 0 instructions: 5010000002 cycles: 2173608169 heartbeat IPC: 2.324 cumulative IPC: 2.305 (Simulation time: 04 hr 27 min 55 sec)
Heartbeat CPU 0 instructions: 5020000004 cycles: 2177930932 heartbeat IPC: 2.313 cumulative IPC: 2.305 (Simulation time: 04 hr 28 min 30 sec)
Heartbeat CPU 0 instructions: 5030000002 cycles: 2182253491 heartbeat IPC: 2.313 cumulative IPC: 2.305 (Simulation time: 04 hr 29 min 04 sec)
Heartbeat CPU 0 instructions: 5040000001 cycles: 2186574021 heartbeat IPC: 2.315 cumulative IPC: 2.305 (Simulation time: 04 hr 29 min 37 sec)
Heartbeat CPU 0 instructions: 5050000002 cycles: 2190904764 heartbeat IPC: 2.309 cumulative IPC: 2.305 (Simulation time: 04 hr 30 min 11 sec)
Heartbeat CPU 0 instructions: 5060000003 cycles: 2195250634 heartbeat IPC: 2.301 cumulative IPC: 2.305 (Simulation time: 04 hr 30 min 45 sec)
Heartbeat CPU 0 instructions: 5070000001 cycles: 2199572086 heartbeat IPC: 2.314 cumulative IPC: 2.305 (Simulation time: 04 hr 31 min 19 sec)
Heartbeat CPU 0 instructions: 5080000000 cycles: 2203911100 heartbeat IPC: 2.305 cumulative IPC: 2.305 (Simulation time: 04 hr 31 min 54 sec)
Heartbeat CPU 0 instructions: 5090000000 cycles: 2208226311 heartbeat IPC: 2.317 cumulative IPC: 2.305 (Simulation time: 04 hr 32 min 27 sec)
Heartbeat CPU 0 instructions: 5100000001 cycles: 2212535321 heartbeat IPC: 2.321 cumulative IPC: 2.305 (Simulation time: 04 hr 33 min 01 sec)
Heartbeat CPU 0 instructions: 5110000001 cycles: 2216844840 heartbeat IPC: 2.32 cumulative IPC: 2.305 (Simulation time: 04 hr 33 min 35 sec)
Heartbeat CPU 0 instructions: 5120000004 cycles: 2221394931 heartbeat IPC: 2.198 cumulative IPC: 2.305 (Simulation time: 04 hr 34 min 10 sec)
Heartbeat CPU 0 instructions: 5130000003 cycles: 2225720980 heartbeat IPC: 2.312 cumulative IPC: 2.305 (Simulation time: 04 hr 34 min 43 sec)
Heartbeat CPU 0 instructions: 5140000002 cycles: 2229998701 heartbeat IPC: 2.338 cumulative IPC: 2.305 (Simulation time: 04 hr 35 min 17 sec)
Heartbeat CPU 0 instructions: 5150000002 cycles: 2234331913 heartbeat IPC: 2.308 cumulative IPC: 2.305 (Simulation time: 04 hr 35 min 51 sec)
Heartbeat CPU 0 instructions: 5160000002 cycles: 2238663008 heartbeat IPC: 2.309 cumulative IPC: 2.305 (Simulation time: 04 hr 36 min 25 sec)
Heartbeat CPU 0 instructions: 5170000004 cycles: 2242995737 heartbeat IPC: 2.308 cumulative IPC: 2.305 (Simulation time: 04 hr 36 min 59 sec)
Heartbeat CPU 0 instructions: 5180000002 cycles: 2247310342 heartbeat IPC: 2.318 cumulative IPC: 2.305 (Simulation time: 04 hr 37 min 32 sec)
Heartbeat CPU 0 instructions: 5190000003 cycles: 2251655278 heartbeat IPC: 2.302 cumulative IPC: 2.305 (Simulation time: 04 hr 38 min 06 sec)
Heartbeat CPU 0 instructions: 5200000004 cycles: 2255964888 heartbeat IPC: 2.32 cumulative IPC: 2.305 (Simulation time: 04 hr 38 min 40 sec)
Heartbeat CPU 0 instructions: 5210000000 cycles: 2260324201 heartbeat IPC: 2.294 cumulative IPC: 2.305 (Simulation time: 04 hr 39 min 14 sec)
Heartbeat CPU 0 instructions: 5220000003 cycles: 2264644432 heartbeat IPC: 2.315 cumulative IPC: 2.305 (Simulation time: 04 hr 39 min 48 sec)
Heartbeat CPU 0 instructions: 5230000001 cycles: 2268961018 heartbeat IPC: 2.317 cumulative IPC: 2.305 (Simulation time: 04 hr 40 min 22 sec)
Heartbeat CPU 0 instructions: 5240000001 cycles: 2273287325 heartbeat IPC: 2.311 cumulative IPC: 2.305 (Simulation time: 04 hr 40 min 55 sec)
Heartbeat CPU 0 instructions: 5250000000 cycles: 2277609689 heartbeat IPC: 2.314 cumulative IPC: 2.305 (Simulation time: 04 hr 41 min 29 sec)
Heartbeat CPU 0 instructions: 5260000003 cycles: 2281934416 heartbeat IPC: 2.312 cumulative IPC: 2.305 (Simulation time: 04 hr 42 min 03 sec)
Heartbeat CPU 0 instructions: 5270000003 cycles: 2286466650 heartbeat IPC: 2.206 cumulative IPC: 2.305 (Simulation time: 04 hr 42 min 38 sec)
Heartbeat CPU 0 instructions: 5280000001 cycles: 2290825249 heartbeat IPC: 2.294 cumulative IPC: 2.305 (Simulation time: 04 hr 43 min 12 sec)
Heartbeat CPU 0 instructions: 5290000000 cycles: 2295158462 heartbeat IPC: 2.308 cumulative IPC: 2.305 (Simulation time: 04 hr 43 min 45 sec)
Heartbeat CPU 0 instructions: 5300000000 cycles: 2299471879 heartbeat IPC: 2.318 cumulative IPC: 2.305 (Simulation time: 04 hr 44 min 20 sec)
Heartbeat CPU 0 instructions: 5310000003 cycles: 2303796026 heartbeat IPC: 2.313 cumulative IPC: 2.305 (Simulation time: 04 hr 44 min 54 sec)
Heartbeat CPU 0 instructions: 5320000002 cycles: 2308118927 heartbeat IPC: 2.313 cumulative IPC: 2.305 (Simulation time: 04 hr 45 min 27 sec)
Heartbeat CPU 0 instructions: 5330000001 cycles: 2312445740 heartbeat IPC: 2.311 cumulative IPC: 2.305 (Simulation time: 04 hr 46 min 02 sec)
Heartbeat CPU 0 instructions: 5340000001 cycles: 2316785867 heartbeat IPC: 2.304 cumulative IPC: 2.305 (Simulation time: 04 hr 46 min 36 sec)
Heartbeat CPU 0 instructions: 5350000000 cycles: 2321072667 heartbeat IPC: 2.333 cumulative IPC: 2.305 (Simulation time: 04 hr 47 min 09 sec)
Heartbeat CPU 0 instructions: 5360000003 cycles: 2325399072 heartbeat IPC: 2.311 cumulative IPC: 2.305 (Simulation time: 04 hr 47 min 44 sec)
Heartbeat CPU 0 instructions: 5370000000 cycles: 2329715439 heartbeat IPC: 2.317 cumulative IPC: 2.305 (Simulation time: 04 hr 48 min 18 sec)
Heartbeat CPU 0 instructions: 5380000004 cycles: 2334054330 heartbeat IPC: 2.305 cumulative IPC: 2.305 (Simulation time: 04 hr 48 min 51 sec)
Heartbeat CPU 0 instructions: 5390000001 cycles: 2338407295 heartbeat IPC: 2.297 cumulative IPC: 2.305 (Simulation time: 04 hr 49 min 26 sec)
Heartbeat CPU 0 instructions: 5400000004 cycles: 2342718685 heartbeat IPC: 2.319 cumulative IPC: 2.305 (Simulation time: 04 hr 49 min 59 sec)
Heartbeat CPU 0 instructions: 5410000004 cycles: 2347039340 heartbeat IPC: 2.314 cumulative IPC: 2.305 (Simulation time: 04 hr 50 min 33 sec)
Heartbeat CPU 0 instructions: 5420000002 cycles: 2351627561 heartbeat IPC: 2.179 cumulative IPC: 2.305 (Simulation time: 04 hr 51 min 08 sec)
Heartbeat CPU 0 instructions: 5430000000 cycles: 2355969442 heartbeat IPC: 2.303 cumulative IPC: 2.305 (Simulation time: 04 hr 51 min 42 sec)
Heartbeat CPU 0 instructions: 5440000001 cycles: 2360262599 heartbeat IPC: 2.329 cumulative IPC: 2.305 (Simulation time: 04 hr 52 min 16 sec)
Heartbeat CPU 0 instructions: 5450000004 cycles: 2364547419 heartbeat IPC: 2.334 cumulative IPC: 2.305 (Simulation time: 04 hr 52 min 51 sec)
Heartbeat CPU 0 instructions: 5460000000 cycles: 2368856801 heartbeat IPC: 2.321 cumulative IPC: 2.305 (Simulation time: 04 hr 53 min 25 sec)
Heartbeat CPU 0 instructions: 5470000004 cycles: 2373156895 heartbeat IPC: 2.326 cumulative IPC: 2.305 (Simulation time: 04 hr 53 min 59 sec)
Heartbeat CPU 0 instructions: 5480000001 cycles: 2377465000 heartbeat IPC: 2.321 cumulative IPC: 2.305 (Simulation time: 04 hr 54 min 33 sec)
Heartbeat CPU 0 instructions: 5490000000 cycles: 2381790318 heartbeat IPC: 2.312 cumulative IPC: 2.305 (Simulation time: 04 hr 55 min 06 sec)
Heartbeat CPU 0 instructions: 5500000000 cycles: 2386146945 heartbeat IPC: 2.295 cumulative IPC: 2.305 (Simulation time: 04 hr 55 min 41 sec)
Heartbeat CPU 0 instructions: 5510000000 cycles: 2390488318 heartbeat IPC: 2.303 cumulative IPC: 2.305 (Simulation time: 04 hr 56 min 15 sec)
Heartbeat CPU 0 instructions: 5520000001 cycles: 2394808270 heartbeat IPC: 2.315 cumulative IPC: 2.305 (Simulation time: 04 hr 56 min 49 sec)
Heartbeat CPU 0 instructions: 5530000001 cycles: 2399162662 heartbeat IPC: 2.297 cumulative IPC: 2.305 (Simulation time: 04 hr 57 min 24 sec)
Heartbeat CPU 0 instructions: 5540000003 cycles: 2403490913 heartbeat IPC: 2.31 cumulative IPC: 2.305 (Simulation time: 04 hr 58 min 00 sec)
Heartbeat CPU 0 instructions: 5550000000 cycles: 2407816222 heartbeat IPC: 2.312 cumulative IPC: 2.305 (Simulation time: 04 hr 58 min 36 sec)
Heartbeat CPU 0 instructions: 5560000001 cycles: 2412110726 heartbeat IPC: 2.329 cumulative IPC: 2.305 (Simulation time: 04 hr 59 min 12 sec)
Heartbeat CPU 0 instructions: 5570000001 cycles: 2416427079 heartbeat IPC: 2.317 cumulative IPC: 2.305 (Simulation time: 04 hr 59 min 46 sec)
Heartbeat CPU 0 instructions: 5580000001 cycles: 2421007892 heartbeat IPC: 2.183 cumulative IPC: 2.305 (Simulation time: 05 hr 00 min 21 sec)
Heartbeat CPU 0 instructions: 5590000003 cycles: 2425334470 heartbeat IPC: 2.311 cumulative IPC: 2.305 (Simulation time: 05 hr 00 min 55 sec)
Heartbeat CPU 0 instructions: 5600000000 cycles: 2429659272 heartbeat IPC: 2.312 cumulative IPC: 2.305 (Simulation time: 05 hr 01 min 29 sec)
Heartbeat CPU 0 instructions: 5610000001 cycles: 2433990612 heartbeat IPC: 2.309 cumulative IPC: 2.305 (Simulation time: 05 hr 02 min 03 sec)
[...]
Heartbeat CPU 0 instructions: 8970000001 cycles: 3891140283 heartbeat IPC: 2.196 cumulative IPC: 2.305 (Simulation time: 07 hr 55 min 18 sec)
Heartbeat CPU 0 instructions: 8980000001 cycles: 3895438544 heartbeat IPC: 2.327 cumulative IPC: 2.305 (Simulation time: 07 hr 55 min 48 sec)
Heartbeat CPU 0 instructions: 8990000003 cycles: 3899734314 heartbeat IPC: 2.328 cumulative IPC: 2.305 (Simulation time: 07 hr 56 min 18 sec)
Heartbeat CPU 0 instructions: 9000000002 cycles: 3904084750 heartbeat IPC: 2.299 cumulative IPC: 2.305 (Simulation time: 07 hr 56 min 48 sec)
Heartbeat CPU 0 instructions: 9010000000 cycles: 3908388417 heartbeat IPC: 2.324 cumulative IPC: 2.305 (Simulation time: 07 hr 57 min 19 sec)
Heartbeat CPU 0 instructions: 9020000002 cycles: 3912711302 heartbeat IPC: 2.313 cumulative IPC: 2.305 (Simulation time: 07 hr 57 min 50 sec)
Heartbeat CPU 0 instructions: 9030000000 cycles: 3917033751 heartbeat IPC: 2.314 cumulative IPC: 2.305 (Simulation time: 07 hr 58 min 22 sec)
Heartbeat CPU 0 instructions: 9040000004 cycles: 3921354342 heartbeat IPC: 2.314 cumulative IPC: 2.305 (Simulation time: 07 hr 58 min 53 sec)
Heartbeat CPU 0 instructions: 9050000000 cycles: 3925685189 heartbeat IPC: 2.309 cumulative IPC: 2.305 (Simulation time: 07 hr 59 min 24 sec)
Heartbeat CPU 0 instructions: 9060000001 cycles: 3930031616 heartbeat IPC: 2.301 cumulative IPC: 2.305 (Simulation time: 07 hr 59 min 54 sec)
Heartbeat CPU 0 instructions: 9070000004 cycles: 3934353112 heartbeat IPC: 2.314 cumulative IPC: 2.305 (Simulation time: 08 hr 00 min 23 sec)
Heartbeat CPU 0 instructions: 9080000003 cycles: 3938692726 heartbeat IPC: 2.304 cumulative IPC: 2.305 (Simulation time: 08 hr 00 min 53 sec)
Heartbeat CPU 0 instructions: 9090000003 cycles: 3943008147 heartbeat IPC: 2.317 cumulative IPC: 2.305 (Simulation time: 08 hr 01 min 23 sec)
Heartbeat CPU 0 instructions: 9100000004 cycles: 3947316097 heartbeat IPC: 2.321 cumulative IPC: 2.305 (Simulation time: 08 hr 01 min 53 sec)
Heartbeat CPU 0 instructions: 9110000001 cycles: 3951625961 heartbeat IPC: 2.32 cumulative IPC: 2.305 (Simulation time: 08 hr 02 min 22 sec)
Heartbeat CPU 0 instructions: 9120000002 cycles: 3956176091 heartbeat IPC: 2.198 cumulative IPC: 2.305 (Simulation time: 08 hr 02 min 53 sec)
Heartbeat CPU 0 instructions: 9130000001 cycles: 3960503175 heartbeat IPC: 2.311 cumulative IPC: 2.305 (Simulation time: 08 hr 03 min 22 sec)
Heartbeat CPU 0 instructions: 9140000000 cycles: 3964781460 heartbeat IPC: 2.337 cumulative IPC: 2.305 (Simulation time: 08 hr 03 min 52 sec)
Heartbeat CPU 0 instructions: 9150000000 cycles: 3969114673 heartbeat IPC: 2.308 cumulative IPC: 2.305 (Simulation time: 08 hr 04 min 22 sec)
Heartbeat CPU 0 instructions: 9160000000 cycles: 3973446108 heartbeat IPC: 2.309 cumulative IPC: 2.305 (Simulation time: 08 hr 04 min 51 sec)
Heartbeat CPU 0 instructions: 9170000002 cycles: 3977778615 heartbeat IPC: 2.308 cumulative IPC: 2.305 (Simulation time: 08 hr 05 min 21 sec)
Heartbeat CPU 0 instructions: 9180000000 cycles: 3982093162 heartbeat IPC: 2.318 cumulative IPC: 2.305 (Simulation time: 08 hr 05 min 50 sec)
Heartbeat CPU 0 instructions: 9190000001 cycles: 3986438693 heartbeat IPC: 2.301 cumulative IPC: 2.305 (Simulation time: 08 hr 06 min 20 sec)
Heartbeat CPU 0 instructions: 9200000002 cycles: 3990749045 heartbeat IPC: 2.32 cumulative IPC: 2.305 (Simulation time: 08 hr 06 min 49 sec)
Heartbeat CPU 0 instructions: 9210000003 cycles: 3995107012 heartbeat IPC: 2.295 cumulative IPC: 2.305 (Simulation time: 08 hr 07 min 19 sec)
Heartbeat CPU 0 instructions: 9220000001 cycles: 3999426662 heartbeat IPC: 2.315 cumulative IPC: 2.305 (Simulation time: 08 hr 07 min 48 sec)
Heartbeat CPU 0 instructions: 9230000003 cycles: 4003743479 heartbeat IPC: 2.317 cumulative IPC: 2.305 (Simulation time: 08 hr 08 min 18 sec)
Heartbeat CPU 0 instructions: 9240000004 cycles: 4008070331 heartbeat IPC: 2.311 cumulative IPC: 2.305 (Simulation time: 08 hr 08 min 47 sec)
Heartbeat CPU 0 instructions: 9250000000 cycles: 4012392391 heartbeat IPC: 2.314 cumulative IPC: 2.305 (Simulation time: 08 hr 09 min 17 sec)
Heartbeat CPU 0 instructions: 9260000001 cycles: 4016717186 heartbeat IPC: 2.312 cumulative IPC: 2.305 (Simulation time: 08 hr 09 min 46 sec)
Heartbeat CPU 0 instructions: 9270000001 cycles: 4021248345 heartbeat IPC: 2.207 cumulative IPC: 2.305 (Simulation time: 08 hr 10 min 16 sec)
Heartbeat CPU 0 instructions: 9280000004 cycles: 4025606124 heartbeat IPC: 2.295 cumulative IPC: 2.305 (Simulation time: 08 hr 10 min 46 sec)
Heartbeat CPU 0 instructions: 9290000000 cycles: 4029939528 heartbeat IPC: 2.308 cumulative IPC: 2.305 (Simulation time: 08 hr 11 min 16 sec)
Heartbeat CPU 0 instructions: 9300000003 cycles: 4034253525 heartbeat IPC: 2.318 cumulative IPC: 2.305 (Simulation time: 08 hr 11 min 45 sec)
Heartbeat CPU 0 instructions: 9310000001 cycles: 4038577411 heartbeat IPC: 2.313 cumulative IPC: 2.305 (Simulation time: 08 hr 12 min 15 sec)
Heartbeat CPU 0 instructions: 9320000000 cycles: 4042900507 heartbeat IPC: 2.313 cumulative IPC: 2.305 (Simulation time: 08 hr 12 min 44 sec)
Heartbeat CPU 0 instructions: 9330000004 cycles: 4047226906 heartbeat IPC: 2.311 cumulative IPC: 2.305 (Simulation time: 08 hr 13 min 13 sec)
Heartbeat CPU 0 instructions: 9340000004 cycles: 4051566680 heartbeat IPC: 2.304 cumulative IPC: 2.305 (Simulation time: 08 hr 13 min 43 sec)
Heartbeat CPU 0 instructions: 9350000003 cycles: 4055853628 heartbeat IPC: 2.333 cumulative IPC: 2.305 (Simulation time: 08 hr 14 min 12 sec)
Heartbeat CPU 0 instructions: 9360000001 cycles: 4060180272 heartbeat IPC: 2.311 cumulative IPC: 2.305 (Simulation time: 08 hr 14 min 42 sec)
Heartbeat CPU 0 instructions: 9370000002 cycles: 4064495715 heartbeat IPC: 2.317 cumulative IPC: 2.305 (Simulation time: 08 hr 15 min 11 sec)
Heartbeat CPU 0 instructions: 9380000002 cycles: 4068833985 heartbeat IPC: 2.305 cumulative IPC: 2.305 (Simulation time: 08 hr 15 min 41 sec)
Heartbeat CPU 0 instructions: 9390000004 cycles: 4073186546 heartbeat IPC: 2.297 cumulative IPC: 2.305 (Simulation time: 08 hr 16 min 10 sec)
Heartbeat CPU 0 instructions: 9400000002 cycles: 4077498325 heartbeat IPC: 2.319 cumulative IPC: 2.305 (Simulation time: 08 hr 16 min 40 sec)
Heartbeat CPU 0 instructions: 9410000002 cycles: 4081818460 heartbeat IPC: 2.315 cumulative IPC: 2.305 (Simulation time: 08 hr 17 min 09 sec)
Heartbeat CPU 0 instructions: 9420000000 cycles: 4086406291 heartbeat IPC: 2.18 cumulative IPC: 2.305 (Simulation time: 08 hr 17 min 40 sec)
Heartbeat CPU 0 instructions: 9430000003 cycles: 4090747928 heartbeat IPC: 2.303 cumulative IPC: 2.305 (Simulation time: 08 hr 18 min 09 sec)
Heartbeat CPU 0 instructions: 9440000004 cycles: 4095040910 heartbeat IPC: 2.329 cumulative IPC: 2.305 (Simulation time: 08 hr 18 min 40 sec)
Heartbeat CPU 0 instructions: 9450000002 cycles: 4099325349 heartbeat IPC: 2.334 cumulative IPC: 2.305 (Simulation time: 08 hr 19 min 10 sec)
Heartbeat CPU 0 instructions: 9460000003 cycles: 4103634842 heartbeat IPC: 2.32 cumulative IPC: 2.305 (Simulation time: 08 hr 19 min 39 sec)
Heartbeat CPU 0 instructions: 9470000002 cycles: 4107935145 heartbeat IPC: 2.325 cumulative IPC: 2.305 (Simulation time: 08 hr 20 min 09 sec)
Heartbeat CPU 0 instructions: 9480000001 cycles: 4112242841 heartbeat IPC: 2.321 cumulative IPC: 2.305 (Simulation time: 08 hr 20 min 39 sec)
Heartbeat CPU 0 instructions: 9490000003 cycles: 4116568459 heartbeat IPC: 2.312 cumulative IPC: 2.305 (Simulation time: 08 hr 21 min 08 sec)
Heartbeat CPU 0 instructions: 9500000001 cycles: 4120925746 heartbeat IPC: 2.295 cumulative IPC: 2.305 (Simulation time: 08 hr 21 min 38 sec)
Heartbeat CPU 0 instructions: 9510000001 cycles: 4125266695 heartbeat IPC: 2.304 cumulative IPC: 2.305 (Simulation time: 08 hr 22 min 07 sec)
Heartbeat CPU 0 instructions: 9520000000 cycles: 4129586096 heartbeat IPC: 2.315 cumulative IPC: 2.305 (Simulation time: 08 hr 22 min 37 sec)
Heartbeat CPU 0 instructions: 9530000004 cycles: 4133940893 heartbeat IPC: 2.296 cumulative IPC: 2.305 (Simulation time: 08 hr 23 min 06 sec)
Heartbeat CPU 0 instructions: 9540000001 cycles: 4138269296 heartbeat IPC: 2.31 cumulative IPC: 2.305 (Simulation time: 08 hr 23 min 36 sec)
Heartbeat CPU 0 instructions: 9550000003 cycles: 4142594613 heartbeat IPC: 2.312 cumulative IPC: 2.305 (Simulation time: 08 hr 24 min 06 sec)
Heartbeat CPU 0 instructions: 9560000004 cycles: 4146889647 heartbeat IPC: 2.328 cumulative IPC: 2.305 (Simulation time: 08 hr 24 min 35 sec)
Heartbeat CPU 0 instructions: 9570000004 cycles: 4151205348 heartbeat IPC: 2.317 cumulative IPC: 2.305 (Simulation time: 08 hr 25 min 05 sec)
Heartbeat CPU 0 instructions: 9580000004 cycles: 4155785388 heartbeat IPC: 2.183 cumulative IPC: 2.305 (Simulation time: 08 hr 25 min 35 sec)
Heartbeat CPU 0 instructions: 9590000001 cycles: 4160112495 heartbeat IPC: 2.311 cumulative IPC: 2.305 (Simulation time: 08 hr 26 min 04 sec)
Heartbeat CPU 0 instructions: 9600000003 cycles: 4164436518 heartbeat IPC: 2.313 cumulative IPC: 2.305 (Simulation time: 08 hr 26 min 34 sec)
Heartbeat CPU 0 instructions: 9610000004 cycles: 4168767213 heartbeat IPC: 2.309 cumulative IPC: 2.305 (Simulation time: 08 hr 27 min 04 sec)
Heartbeat CPU 0 instructions: 9620000000 cycles: 4173070492 heartbeat IPC: 2.324 cumulative IPC: 2.305 (Simulation time: 08 hr 27 min 33 sec)
Heartbeat CPU 0 instructions: 9630000003 cycles: 4177414170 heartbeat IPC: 2.302 cumulative IPC: 2.305 (Simulation time: 08 hr 28 min 03 sec)
Heartbeat CPU 0 instructions: 9640000000 cycles: 4181705835 heartbeat IPC: 2.33 cumulative IPC: 2.305 (Simulation time: 08 hr 28 min 32 sec)
Heartbeat CPU 0 instructions: 9650000002 cycles: 4186030303 heartbeat IPC: 2.312 cumulative IPC: 2.305 (Simulation time: 08 hr 29 min 02 sec)
Heartbeat CPU 0 instructions: 9660000001 cycles: 4190313425 heartbeat IPC: 2.335 cumulative IPC: 2.305 (Simulation time: 08 hr 29 min 31 sec)
Heartbeat CPU 0 instructions: 9670000002 cycles: 4194604871 heartbeat IPC: 2.33 cumulative IPC: 2.305 (Simulation time: 08 hr 30 min 00 sec)
Heartbeat CPU 0 instructions: 9680000002 cycles: 4198892194 heartbeat IPC: 2.332 cumulative IPC: 2.305 (Simulation time: 08 hr 30 min 30 sec)
Heartbeat CPU 0 instructions: 9690000002 cycles: 4203213534 heartbeat IPC: 2.314 cumulative IPC: 2.305 (Simulation time: 08 hr 30 min 59 sec)
Heartbeat CPU 0 instructions: 9700000002 cycles: 4207539534 heartbeat IPC: 2.312 cumulative IPC: 2.305 (Simulation time: 08 hr 31 min 29 sec)
Heartbeat CPU 0 instructions: 9710000003 cycles: 4211869862 heartbeat IPC: 2.309 cumulative IPC: 2.305 (Simulation time: 08 hr 31 min 58 sec)
Heartbeat CPU 0 instructions: 9720000003 cycles: 4216217937 heartbeat IPC: 2.3 cumulative IPC: 2.305 (Simulation time: 08 hr 32 min 28 sec)
Heartbeat CPU 0 instructions: 9730000001 cycles: 4220740404 heartbeat IPC: 2.211 cumulative IPC: 2.305 (Simulation time: 08 hr 32 min 58 sec)
Heartbeat CPU 0 instructions: 9740000004 cycles: 4225082473 heartbeat IPC: 2.303 cumulative IPC: 2.305 (Simulation time: 08 hr 33 min 29 sec)
Heartbeat CPU 0 instructions: 9750000003 cycles: 4229405348 heartbeat IPC: 2.313 cumulative IPC: 2.305 (Simulation time: 08 hr 33 min 59 sec)
Heartbeat CPU 0 instructions: 9760000002 cycles: 4233722814 heartbeat IPC: 2.316 cumulative IPC: 2.305 (Simulation time: 08 hr 34 min 28 sec)
Heartbeat CPU 0 instructions: 9770000002 cycles: 4238044956 heartbeat IPC: 2.314 cumulative IPC: 2.305 (Simulation time: 08 hr 34 min 58 sec)
Heartbeat CPU 0 instructions: 9780000001 cycles: 4242358305 heartbeat IPC: 2.318 cumulative IPC: 2.305 (Simulation time: 08 hr 35 min 28 sec)
Heartbeat CPU 0 instructions: 9790000004 cycles: 4246651496 heartbeat IPC: 2.329 cumulative IPC: 2.305 (Simulation time: 08 hr 35 min 57 sec)
Heartbeat CPU 0 instructions: 9800000003 cycles: 4250986875 heartbeat IPC: 2.307 cumulative IPC: 2.305 (Simulation time: 08 hr 36 min 27 sec)
Heartbeat CPU 0 instructions: 9810000004 cycles: 4255278385 heartbeat IPC: 2.33 cumulative IPC: 2.305 (Simulation time: 08 hr 36 min 56 sec)
Heartbeat CPU 0 instructions: 9820000001 cycles: 4259603330 heartbeat IPC: 2.312 cumulative IPC: 2.305 (Simulation time: 08 hr 37 min 26 sec)
Heartbeat CPU 0 instructions: 9830000004 cycles: 4263955964 heartbeat IPC: 2.297 cumulative IPC: 2.305 (Simulation time: 08 hr 37 min 56 sec)
Heartbeat CPU 0 instructions: 9840000000 cycles: 4268288477 heartbeat IPC: 2.308 cumulative IPC: 2.305 (Simulation time: 08 hr 38 min 25 sec)
Heartbeat CPU 0 instructions: 9850000002 cycles: 4272628747 heartbeat IPC: 2.304 cumulative IPC: 2.305 (Simulation time: 08 hr 38 min 55 sec)
Heartbeat CPU 0 instructions: 9860000000 cycles: 4276978678 heartbeat IPC: 2.299 cumulative IPC: 2.305 (Simulation time: 08 hr 39 min 24 sec)
Heartbeat CPU 0 instructions: 9870000003 cycles: 4281323979 heartbeat IPC: 2.301 cumulative IPC: 2.305 (Simulation time: 08 hr 39 min 54 sec)
Heartbeat CPU 0 instructions: 9880000000 cycles: 4285889559 heartbeat IPC: 2.19 cumulative IPC: 2.305 (Simulation time: 08 hr 40 min 25 sec)
Heartbeat CPU 0 instructions: 9890000004 cycles: 4290194051 heartbeat IPC: 2.323 cumulative IPC: 2.305 (Simulation time: 08 hr 40 min 54 sec)
Heartbeat CPU 0 instructions: 9900000000 cycles: 4294492344 heartbeat IPC: 2.327 cumulative IPC: 2.305 (Simulation time: 08 hr 41 min 24 sec)
Heartbeat CPU 0 instructions: 9910000000 cycles: 4298822461 heartbeat IPC: 2.309 cumulative IPC: 2.305 (Simulation time: 08 hr 41 min 54 sec)
Heartbeat CPU 0 instructions: 9920000002 cycles: 4303176162 heartbeat IPC: 2.297 cumulative IPC: 2.305 (Simulation time: 08 hr 42 min 23 sec)
Heartbeat CPU 0 instructions: 9930000004 cycles: 4307508462 heartbeat IPC: 2.308 cumulative IPC: 2.305 (Simulation time: 08 hr 42 min 53 sec)
Heartbeat CPU 0 instructions: 9940000001 cycles: 4311848080 heartbeat IPC: 2.304 cumulative IPC: 2.305 (Simulation time: 08 hr 43 min 22 sec)
Heartbeat CPU 0 instructions: 9950000002 cycles: 4316187009 heartbeat IPC: 2.305 cumulative IPC: 2.305 (Simulation time: 08 hr 43 min 52 sec)
Heartbeat CPU 0 instructions: 9960000002 cycles: 4320473813 heartbeat IPC: 2.333 cumulative IPC: 2.305 (Simulation time: 08 hr 44 min 21 sec)
Heartbeat CPU 0 instructions: 9970000002 cycles: 4324787733 heartbeat IPC: 2.318 cumulative IPC: 2.305 (Simulation time: 08 hr 44 min 51 sec)
Heartbeat CPU 0 instructions: 9980000001 cycles: 4329109920 heartbeat IPC: 2.314 cumulative IPC: 2.305 (Simulation time: 08 hr 45 min 20 sec)
Heartbeat CPU 0 instructions: 9990000002 cycles: 4333445490 heartbeat IPC: 2.307 cumulative IPC: 2.305 (Simulation time: 08 hr 45 min 51 sec)
*** Reached end of trace: (0, "traces/607.cactuBSSN_s-3477B.champsimtrace.xz")
Heartbeat CPU 0 instructions: 10000000000 cycles: 4337775410 heartbeat IPC: 2.31 cumulative IPC: 2.305 (Simulation time: 08 hr 46 min 20 sec)
Simulation finished CPU 0 instructions: 10000000000 cycles: 4337775410 cumulative IPC: 2.305 (Simulation time: 08 hr 46 min 20 sec)
Simulation complete CPU 0 instructions: 10000000000 cycles: 4337775410 cumulative IPC: 2.305 (Simulation time: 08 hr 46 min 20 sec)

ChampSim completed all CPUs

=== Simulation ===
CPU 0 runs traces/607.cactuBSSN_s-3477B.champsimtrace.xz
Region of Interest Statistics

CPU 0 cumulative IPC: 2.305 instructions: 10000000000 cycles: 4337775410
CPU 0 Branch Prediction Accuracy: 91.81% MPKI: 0.7259 Average ROB Occupancy at Mispredict: 223.5
Branch type MPKI
BRANCH_DIRECT_JUMP: 1.35e-05
BRANCH_INDIRECT: 7e-07
BRANCH_CONDITIONAL: 0.364
BRANCH_DIRECT_CALL: 4.7e-06
BRANCH_INDIRECT_CALL: 0
BRANCH_RETURN: 0.362

LLC TOTAL        ACCESS:   51522286 HIT:   24831550 MISS:   26690736
LLC LOAD         ACCESS:   39310720 HIT:   18786322 MISS:   20524398
LLC RFO          ACCESS:    5857154 HIT:       2880 MISS:    5854274
LLC PREFETCH     ACCESS:          0 HIT:          0 MISS:          0
LLC WRITE        ACCESS:    5855473 HIT:    5855456 MISS:         17
LLC TRANSLATION  ACCESS:     498939 HIT:     186892 MISS:     312047
LLC PREFETCH REQUESTED:          0 ISSUED:          0 USEFUL:          0 USELESS:          0
LLC AVERAGE MISS LATENCY: 656 cycles
cpu0_DTLB TOTAL        ACCESS: 2511721443 HIT: 2070665851 MISS:  441055592
cpu0_DTLB LOAD         ACCESS: 2511721443 HIT: 2070665851 MISS:  441055592
cpu0_DTLB RFO          ACCESS:          0 HIT:          0 MISS:          0
cpu0_DTLB PREFETCH     ACCESS:          0 HIT:          0 MISS:          0
cpu0_DTLB WRITE        ACCESS:          0 HIT:          0 MISS:          0
cpu0_DTLB TRANSLATION  ACCESS:          0 HIT:          0 MISS:          0
cpu0_DTLB PREFETCH REQUESTED:          0 ISSUED:          0 USEFUL:          0 USELESS:          0
cpu0_DTLB AVERAGE MISS LATENCY: 6.792 cycles
cpu0_ITLB TOTAL        ACCESS: 1174149430 HIT: 1174149341 MISS:         89
cpu0_ITLB LOAD         ACCESS: 1174149430 HIT: 1174149341 MISS:         89
cpu0_ITLB RFO          ACCESS:          0 HIT:          0 MISS:          0
cpu0_ITLB PREFETCH     ACCESS:          0 HIT:          0 MISS:          0
cpu0_ITLB WRITE        ACCESS:          0 HIT:          0 MISS:          0
cpu0_ITLB TRANSLATION  ACCESS:          0 HIT:          0 MISS:          0
cpu0_ITLB PREFETCH REQUESTED:          0 ISSUED:          0 USEFUL:          0 USELESS:          0
cpu0_ITLB AVERAGE MISS LATENCY: 138.5 cycles
cpu0_L1D TOTAL        ACCESS: 3362725637 HIT: 2588611194 MISS:  774114443
cpu0_L1D LOAD         ACCESS: 2566031583 HIT: 1864598094 MISS:  701433489
cpu0_L1D RFO          ACCESS:          0 HIT:          0 MISS:          0
cpu0_L1D PREFETCH     ACCESS:          0 HIT:          0 MISS:          0
cpu0_L1D WRITE        ACCESS:  796061503 HIT:  724009469 MISS:   72052034
cpu0_L1D TRANSLATION  ACCESS:     632551 HIT:       3631 MISS:     628920
cpu0_L1D PREFETCH REQUESTED:          0 ISSUED:          0 USEFUL:          0 USELESS:          0
cpu0_L1D AVERAGE MISS LATENCY: 33.58 cycles
cpu0_L1I TOTAL        ACCESS: 1673917217 HIT: 1181297262 MISS:  492619955
cpu0_L1I LOAD         ACCESS: 1673917217 HIT: 1181297262 MISS:  492619955
cpu0_L1I RFO          ACCESS:          0 HIT:          0 MISS:          0
cpu0_L1I PREFETCH     ACCESS:          0 HIT:          0 MISS:          0
cpu0_L1I WRITE        ACCESS:          0 HIT:          0 MISS:          0
cpu0_L1I TRANSLATION  ACCESS:          0 HIT:          0 MISS:          0
cpu0_L1I PREFETCH REQUESTED:          0 ISSUED:          0 USEFUL:          0 USELESS:          0
cpu0_L1I AVERAGE MISS LATENCY: 5.618 cycles
cpu0_L2C TOTAL        ACCESS: 1072160587 HIT: 1026490542 MISS:   45670045
cpu0_L2C LOAD         ACCESS:  951643076 HIT:  912332355 MISS:   39310721
cpu0_L2C RFO          ACCESS:   61577091 HIT:   55719822 MISS:    5857269
cpu0_L2C PREFETCH     ACCESS:          0 HIT:          0 MISS:          0
cpu0_L2C WRITE        ACCESS:   58312127 HIT:   58309012 MISS:       3115
cpu0_L2C TRANSLATION  ACCESS:     628293 HIT:     129353 MISS:     498940
cpu0_L2C PREFETCH REQUESTED:          0 ISSUED:          0 USEFUL:          0 USELESS:          0
cpu0_L2C AVERAGE MISS LATENCY: 404 cycles
cpu0_STLB TOTAL        ACCESS:  381165793 HIT:  380747318 MISS:     418475
cpu0_STLB LOAD         ACCESS:  381165793 HIT:  380747318 MISS:     418475
cpu0_STLB RFO          ACCESS:          0 HIT:          0 MISS:          0
cpu0_STLB PREFETCH     ACCESS:          0 HIT:          0 MISS:          0
cpu0_STLB WRITE        ACCESS:          0 HIT:          0 MISS:          0
cpu0_STLB TRANSLATION  ACCESS:          0 HIT:          0 MISS:          0
cpu0_STLB PREFETCH REQUESTED:          0 ISSUED:          0 USEFUL:          0 USELESS:          0
cpu0_STLB AVERAGE MISS LATENCY: 490.9 cycles

DRAM Statistics

Channel 0 RQ ROW_BUFFER_HIT:   15508323
  ROW_BUFFER_MISS:   11182383
 AVG DBUS CONGESTED CYCLE: 3.953
WQ ROW_BUFFER_HIT: Channel 0 
  ROW_BUFFER_MISS:     989456
  FULL:    4857508
