WARNING: physical memory size is smaller than virtual memory size.

*** ChampSim Multicore Out-of-Order Simulator ***
Warmup Instructions: 1000000000
Simulation Instructions: 500000000
Number of CPUs: 1
Page size: 4096

Off-chip DRAM Size: 4 GiB Channels: 1 Width: 64-bit Data Race: 3200 MT/s
Heartbeat CPU 0 instructions: 10000001 cycles: 2559476 heartbeat IPC: 3.907 cumulative IPC: 3.907 (Simulation time: 00 hr 00 min 20 sec)
Heartbeat CPU 0 instructions: 20000004 cycles: 5118891 heartbeat IPC: 3.907 cumulative IPC: 3.907 (Simulation time: 00 hr 00 min 40 sec)
Heartbeat CPU 0 instructions: 30000000 cycles: 7677948 heartbeat IPC: 3.908 cumulative IPC: 3.907 (Simulation time: 00 hr 01 min 02 sec)
Heartbeat CPU 0 instructions: 40000001 cycles: 10237443 heartbeat IPC: 3.907 cumulative IPC: 3.907 (Simulation time: 00 hr 01 min 25 sec)
Heartbeat CPU 0 instructions: 50000004 cycles: 12796758 heartbeat IPC: 3.907 cumulative IPC: 3.907 (Simulation time: 00 hr 01 min 50 sec)
Heartbeat CPU 0 instructions: 60000002 cycles: 15356094 heartbeat IPC: 3.907 cumulative IPC: 3.907 (Simulation time: 00 hr 02 min 14 sec)
Heartbeat CPU 0 instructions: 70000003 cycles: 17915399 heartbeat IPC: 3.907 cumulative IPC: 3.907 (Simulation time: 00 hr 02 min 39 sec)
Heartbeat CPU 0 instructions: 80000002 cycles: 20474872 heartbeat IPC: 3.907 cumulative IPC: 3.907 (Simulation time: 00 hr 03 min 03 sec)
Heartbeat CPU 0 instructions: 90000002 cycles: 23034141 heartbeat IPC: 3.907 cumulative IPC: 3.907 (Simulation time: 00 hr 03 min 28 sec)
Heartbeat CPU 0 instructions: 100000001 cycles: 25593723 heartbeat IPC: 3.907 cumulative IPC: 3.907 (Simulation time: 00 hr 03 min 52 sec)
Heartbeat CPU 0 instructions: 110000000 cycles: 28152550 heartbeat IPC: 3.908 cumulative IPC: 3.907 (Simulation time: 00 hr 04 min 17 sec)
Heartbeat CPU 0 instructions: 120000002 cycles: 30712178 heartbeat IPC: 3.907 cumulative IPC: 3.907 (Simulation time: 00 hr 04 min 41 sec)
Heartbeat CPU 0 instructions: 130000001 cycles: 33271281 heartbeat IPC: 3.908 cumulative IPC: 3.907 (Simulation time: 00 hr 05 min 06 sec)
Heartbeat CPU 0 instructions: 140000002 cycles: 35830764 heartbeat IPC: 3.907 cumulative IPC: 3.907 (Simulation time: 00 hr 05 min 31 sec)
Heartbeat CPU 0 instructions: 150000000 cycles: 38390579 heartbeat IPC: 3.907 cumulative IPC: 3.907 (Simulation time: 00 hr 05 min 55 sec)
Heartbeat CPU 0 instructions: 160000001 cycles: 40949797 heartbeat IPC: 3.907 cumulative IPC: 3.907 (Simulation time: 00 hr 06 min 20 sec)
Heartbeat CPU 0 instructions: 170000003 cycles: 43509251 heartbeat IPC: 3.907 cumulative IPC: 3.907 (Simulation time: 00 hr 06 min 45 sec)
Heartbeat CPU 0 instructions: 180000003 cycles: 46068581 heartbeat IPC: 3.907 cumulative IPC: 3.907 (Simulation time: 00 hr 07 min 10 sec)
Heartbeat CPU 0 instructions: 190000000 cycles: 48627967 heartbeat IPC: 3.907 cumulative IPC: 3.907 (Simulation time: 00 hr 07 min 38 sec)
Heartbeat CPU 0 instructions: 200000000 cycles: 51186803 heartbeat IPC: 3.908 cumulative IPC: 3.907 (Simulation time: 00 hr 08 min 24 sec)
Heartbeat CPU 0 instructions: 210000001 cycles: 53746162 heartbeat IPC: 3.907 cumulative IPC: 3.907 (Simulation time: 00 hr 09 min 11 sec)
Heartbeat CPU 0 instructions: 220000000 cycles: 56305792 heartbeat IPC: 3.907 cumulative IPC: 3.907 (Simulation time: 00 hr 09 min 57 sec)
Heartbeat CPU 0 instructions: 230000004 cycles: 58865532 heartbeat IPC: 3.907 cumulative IPC: 3.907 (Simulation time: 00 hr 10 min 43 sec)
Heartbeat CPU 0 instructions: 240000000 cycles: 61424634 heartbeat IPC: 3.908 cumulative IPC: 3.907 (Simulation time: 00 hr 11 min 30 sec)
Heartbeat CPU 0 instructions: 250000003 cycles: 63984211 heartbeat IPC: 3.907 cumulative IPC: 3.907 (Simulation time: 00 hr 12 min 16 sec)
Heartbeat CPU 0 instructions: 260000000 cycles: 66543563 heartbeat IPC: 3.907 cumulative IPC: 3.907 (Simulation time: 00 hr 13 min 02 sec)
Heartbeat CPU 0 instructions: 270000003 cycles: 69103091 heartbeat IPC: 3.907 cumulative IPC: 3.907 (Simulation time: 00 hr 13 min 48 sec)
Heartbeat CPU 0 instructions: 280000002 cycles: 71662614 heartbeat IPC: 3.907 cumulative IPC: 3.907 (Simulation time: 00 hr 14 min 34 sec)
Heartbeat CPU 0 instructions: 290000000 cycles: 74222229 heartbeat IPC: 3.907 cumulative IPC: 3.907 (Simulation time: 00 hr 15 min 20 sec)
Heartbeat CPU 0 instructions: 300000003 cycles: 76781415 heartbeat IPC: 3.907 cumulative IPC: 3.907 (Simulation time: 00 hr 16 min 06 sec)
Heartbeat CPU 0 instructions: 310000002 cycles: 79340786 heartbeat IPC: 3.907 cumulative IPC: 3.907 (Simulation time: 00 hr 16 min 53 sec)
Heartbeat CPU 0 instructions: 320000003 cycles: 81899966 heartbeat IPC: 3.908 cumulative IPC: 3.907 (Simulation time: 00 hr 17 min 39 sec)
Heartbeat CPU 0 instructions: 330000003 cycles: 84459120 heartbeat IPC: 3.908 cumulative IPC: 3.907 (Simulation time: 00 hr 18 min 25 sec)
Heartbeat CPU 0 instructions: 340000000 cycles: 87018429 heartbeat IPC: 3.907 cumulative IPC: 3.907 (Simulation time: 00 hr 19 min 11 sec)
Heartbeat CPU 0 instructions: 350000003 cycles: 89577593 heartbeat IPC: 3.908 cumulative IPC: 3.907 (Simulation time: 00 hr 19 min 57 sec)
Heartbeat CPU 0 instructions: 360000003 cycles: 92136675 heartbeat IPC: 3.908 cumulative IPC: 3.907 (Simulation time: 00 hr 20 min 43 sec)
Heartbeat CPU 0 instructions: 370000001 cycles: 94696342 heartbeat IPC: 3.907 cumulative IPC: 3.907 (Simulation time: 00 hr 21 min 29 sec)
Heartbeat CPU 0 instructions: 380000000 cycles: 97255357 heartbeat IPC: 3.908 cumulative IPC: 3.907 (Simulation time: 00 hr 22 min 15 sec)
Heartbeat CPU 0 instructions: 390000004 cycles: 99814255 heartbeat IPC: 3.908 cumulative IPC: 3.907 (Simulation time: 00 hr 23 min 01 sec)
Heartbeat CPU 0 instructions: 400000001 cycles: 102373146 heartbeat IPC: 3.908 cumulative IPC: 3.907 (Simulation time: 00 hr 23 min 47 sec)
Heartbeat CPU 0 instructions: 410000001 cycles: 104932139 heartbeat IPC: 3.908 cumulative IPC: 3.907 (Simulation time: 00 hr 24 min 34 sec)
Heartbeat CPU 0 instructions: 420000001 cycles: 107491711 heartbeat IPC: 3.907 cumulative IPC: 3.907 (Simulation time: 00 hr 25 min 20 sec)
Heartbeat CPU 0 instructions: 430000001 cycles: 110050129 heartbeat IPC: 3.909 cumulative IPC: 3.907 (Simulation time: 00 hr 26 min 07 sec)
Heartbeat CPU 0 instructions: 440000001 cycles: 112609595 heartbeat IPC: 3.907 cumulative IPC: 3.907 (Simulation time: 00 hr 26 min 53 sec)
Heartbeat CPU 0 instructions: 450000004 cycles: 115168975 heartbeat IPC: 3.907 cumulative IPC: 3.907 (Simulation time: 00 hr 27 min 39 sec)
Heartbeat CPU 0 instructions: 460000001 cycles: 117728559 heartbeat IPC: 3.907 cumulative IPC: 3.907 (Simulation time: 00 hr 28 min 26 sec)
Heartbeat CPU 0 instructions: 470000003 cycles: 120287600 heartbeat IPC: 3.908 cumulative IPC: 3.907 (Simulation time: 00 hr 29 min 12 sec)
Heartbeat CPU 0 instructions: 480000001 cycles: 122846755 heartbeat IPC: 3.908 cumulative IPC: 3.907 (Simulation time: 00 hr 29 min 59 sec)
Heartbeat CPU 0 instructions: 490000001 cycles: 125406167 heartbeat IPC: 3.907 cumulative IPC: 3.907 (Simulation time: 00 hr 30 min 45 sec)
Heartbeat CPU 0 instructions: 500000001 cycles: 127965487 heartbeat IPC: 3.907 cumulative IPC: 3.907 (Simulation time: 00 hr 31 min 31 sec)
Heartbeat CPU 0 instructions: 510000003 cycles: 130524651 heartbeat IPC: 3.908 cumulative IPC: 3.907 (Simulation time: 00 hr 32 min 18 sec)
Heartbeat CPU 0 instructions: 520000003 cycles: 133083813 heartbeat IPC: 3.908 cumulative IPC: 3.907 (Simulation time: 00 hr 33 min 04 sec)
Heartbeat CPU 0 instructions: 530000000 cycles: 135642786 heartbeat IPC: 3.908 cumulative IPC: 3.907 (Simulation time: 00 hr 33 min 51 sec)
Heartbeat CPU 0 instructions: 540000003 cycles: 138202058 heartbeat IPC: 3.907 cumulative IPC: 3.907 (Simulation time: 00 hr 34 min 37 sec)
Heartbeat CPU 0 instructions: 550000000 cycles: 140761250 heartbeat IPC: 3.907 cumulative IPC: 3.907 (Simulation time: 00 hr 35 min 24 sec)
Heartbeat CPU 0 instructions: 560000000 cycles: 143320746 heartbeat IPC: 3.907 cumulative IPC: 3.907 (Simulation time: 00 hr 36 min 10 sec)
Heartbeat CPU 0 instructions: 570000002 cycles: 145879857 heartbeat IPC: 3.908 cumulative IPC: 3.907 (Simulation time: 00 hr 36 min 57 sec)
Heartbeat CPU 0 instructions: 580000003 cycles: 148439212 heartbeat IPC: 3.907 cumulative IPC: 3.907 (Simulation time: 00 hr 37 min 43 sec)
Heartbeat CPU 0 instructions: 590000003 cycles: 150998133 heartbeat IPC: 3.908 cumulative IPC: 3.907 (Simulation time: 00 hr 38 min 30 sec)
Heartbeat CPU 0 instructions: 600000001 cycles: 153557091 heartbeat IPC: 3.908 cumulative IPC: 3.907 (Simulation time: 00 hr 39 min 16 sec)
Heartbeat CPU 0 instructions: 610000002 cycles: 156116752 heartbeat IPC: 3.907 cumulative IPC: 3.907 (Simulation time: 00 hr 40 min 02 sec)
Heartbeat CPU 0 instructions: 620000003 cycles: 158675679 heartbeat IPC: 3.908 cumulative IPC: 3.907 (Simulation time: 00 hr 40 min 49 sec)
Heartbeat CPU 0 instructions: 630000002 cycles: 161234979 heartbeat IPC: 3.907 cumulative IPC: 3.907 (Simulation time: 00 hr 41 min 35 sec)
Heartbeat CPU 0 instructions: 640000004 cycles: 163794101 heartbeat IPC: 3.908 cumulative IPC: 3.907 (Simulation time: 00 hr 42 min 21 sec)
Heartbeat CPU 0 instructions: 650000003 cycles: 166353390 heartbeat IPC: 3.907 cumulative IPC: 3.907 (Simulation time: 00 hr 43 min 08 sec)
Heartbeat CPU 0 instructions: 660000000 cycles: 168912881 heartbeat IPC: 3.907 cumulative IPC: 3.907 (Simulation time: 00 hr 43 min 54 sec)
Heartbeat CPU 0 instructions: 670000002 cycles: 171472302 heartbeat IPC: 3.907 cumulative IPC: 3.907 (Simulation time: 00 hr 44 min 40 sec)
Heartbeat CPU 0 instructions: 680000000 cycles: 174030997 heartbeat IPC: 3.908 cumulative IPC: 3.907 (Simulation time: 00 hr 45 min 26 sec)
Heartbeat CPU 0 instructions: 690000003 cycles: 176590760 heartbeat IPC: 3.907 cumulative IPC: 3.907 (Simulation time: 00 hr 46 min 12 sec)
Heartbeat CPU 0 instructions: 700000001 cycles: 179149767 heartbeat IPC: 3.908 cumulative IPC: 3.907 (Simulation time: 00 hr 46 min 58 sec)
Heartbeat CPU 0 instructions: 710000001 cycles: 181709724 heartbeat IPC: 3.906 cumulative IPC: 3.907 (Simulation time: 00 hr 47 min 44 sec)
Heartbeat CPU 0 instructions: 720000002 cycles: 184268922 heartbeat IPC: 3.907 cumulative IPC: 3.907 (Simulation time: 00 hr 48 min 30 sec)
Heartbeat CPU 0 instructions: 730000003 cycles: 186828072 heartbeat IPC: 3.908 cumulative IPC: 3.907 (Simulation time: 00 hr 49 min 16 sec)
Heartbeat CPU 0 instructions: 740000004 cycles: 189387378 heartbeat IPC: 3.907 cumulative IPC: 3.907 (Simulation time: 00 hr 50 min 02 sec)
Heartbeat CPU 0 instructions: 750000001 cycles: 191946818 heartbeat IPC: 3.907 cumulative IPC: 3.907 (Simulation time: 00 hr 50 min 49 sec)
Heartbeat CPU 0 instructions: 760000001 cycles: 194506017 heartbeat IPC: 3.907 cumulative IPC: 3.907 (Simulation time: 00 hr 51 min 37 sec)
Heartbeat CPU 0 instructions: 770000004 cycles: 197064821 heartbeat IPC: 3.908 cumulative IPC: 3.907 (Simulation time: 00 hr 52 min 23 sec)
Heartbeat CPU 0 instructions: 780000002 cycles: 199624161 heartbeat IPC: 3.907 cumulative IPC: 3.907 (Simulation time: 00 hr 53 min 10 sec)
Heartbeat CPU 0 instructions: 790000002 cycles: 202183478 heartbeat IPC: 3.907 cumulative IPC: 3.907 (Simulation time: 00 hr 53 min 57 sec)
Heartbeat CPU 0 instructions: 800000002 cycles: 204742945 heartbeat IPC: 3.907 cumulative IPC: 3.907 (Simulation time: 00 hr 54 min 44 sec)
Heartbeat CPU 0 instructions: 810000003 cycles: 207301977 heartbeat IPC: 3.908 cumulative IPC: 3.907 (Simulation time: 00 hr 55 min 31 sec)
Heartbeat CPU 0 instructions: 820000003 cycles: 209861366 heartbeat IPC: 3.907 cumulative IPC: 3.907 (Simulation time: 00 hr 56 min 18 sec)
Heartbeat CPU 0 instructions: 830000003 cycles: 212420526 heartbeat IPC: 3.908 cumulative IPC: 3.907 (Simulation time: 00 hr 57 min 05 sec)
Heartbeat CPU 0 instructions: 840000002 cycles: 214979839 heartbeat IPC: 3.907 cumulative IPC: 3.907 (Simulation time: 00 hr 57 min 52 sec)
Heartbeat CPU 0 instructions: 850000001 cycles: 217538954 heartbeat IPC: 3.908 cumulative IPC: 3.907 (Simulation time: 00 hr 58 min 39 sec)
Heartbeat CPU 0 instructions: 860000001 cycles: 220098567 heartbeat IPC: 3.907 cumulative IPC: 3.907 (Simulation time: 00 hr 59 min 25 sec)
Heartbeat CPU 0 instructions: 870000003 cycles: 222657681 heartbeat IPC: 3.908 cumulative IPC: 3.907 (Simulation time: 01 hr 00 min 12 sec)
Heartbeat CPU 0 instructions: 880000001 cycles: 225217327 heartbeat IPC: 3.907 cumulative IPC: 3.907 (Simulation time: 01 hr 00 min 58 sec)
Heartbeat CPU 0 instructions: 890000003 cycles: 227776318 heartbeat IPC: 3.908 cumulative IPC: 3.907 (Simulation time: 01 hr 01 min 45 sec)
Heartbeat CPU 0 instructions: 900000003 cycles: 230335670 heartbeat IPC: 3.907 cumulative IPC: 3.907 (Simulation time: 01 hr 02 min 31 sec)
Heartbeat CPU 0 instructions: 910000000 cycles: 232895405 heartbeat IPC: 3.907 cumulative IPC: 3.907 (Simulation time: 01 hr 03 min 17 sec)
Heartbeat CPU 0 instructions: 920000003 cycles: 235454349 heartbeat IPC: 3.908 cumulative IPC: 3.907 (Simulation time: 01 hr 04 min 04 sec)
Heartbeat CPU 0 instructions: 930000003 cycles: 238013995 heartbeat IPC: 3.907 cumulative IPC: 3.907 (Simulation time: 01 hr 04 min 51 sec)
Heartbeat CPU 0 instructions: 940000004 cycles: 240573192 heartbeat IPC: 3.907 cumulative IPC: 3.907 (Simulation time: 01 hr 05 min 38 sec)
Heartbeat CPU 0 instructions: 950000003 cycles: 243132762 heartbeat IPC: 3.907 cumulative IPC: 3.907 (Simulation time: 01 hr 06 min 26 sec)
Heartbeat CPU 0 instructions: 960000001 cycles: 245691554 heartbeat IPC: 3.908 cumulative IPC: 3.907 (Simulation time: 01 hr 07 min 13 sec)
Heartbeat CPU 0 instructions: 970000001 cycles: 248250550 heartbeat IPC: 3.908 cumulative IPC: 3.907 (Simulation time: 01 hr 08 min 00 sec)
Heartbeat CPU 0 instructions: 980000000 cycles: 250809568 heartbeat IPC: 3.908 cumulative IPC: 3.907 (Simulation time: 01 hr 08 min 46 sec)
Heartbeat CPU 0 instructions: 990000004 cycles: 253369181 heartbeat IPC: 3.907 cumulative IPC: 3.907 (Simulation time: 01 hr 09 min 32 sec)
Heartbeat CPU 0 instructions: 1000000001 cycles: 255927886 heartbeat IPC: 3.908 cumulative IPC: 3.907 (Simulation time: 01 hr 10 min 18 sec)
Warmup finished CPU 0 instructions: 1000000001 cycles: 255927887 cumulative IPC: 3.907 (Simulation time: 01 hr 10 min 18 sec)
Warmup complete CPU 0 instructions: 1000000001 cycles: 255927887 cumulative IPC: 3.907 (Simulation time: 01 hr 10 min 18 sec)
Heartbeat CPU 0 instructions: 1010000004 cycles: 260261144 heartbeat IPC: 2.308 cumulative IPC: 2.308 (Simulation time: 01 hr 11 min 30 sec)
Heartbeat CPU 0 instructions: 1020000001 cycles: 264573064 heartbeat IPC: 2.319 cumulative IPC: 2.313 (Simulation time: 01 hr 12 min 42 sec)
Heartbeat CPU 0 instructions: 1030000004 cycles: 268853577 heartbeat IPC: 2.336 cumulative IPC: 2.321 (Simulation time: 01 hr 13 min 53 sec)
Heartbeat CPU 0 instructions: 1040000000 cycles: 273211987 heartbeat IPC: 2.294 cumulative IPC: 2.314 (Simulation time: 01 hr 15 min 05 sec)
Heartbeat CPU 0 instructions: 1050000000 cycles: 277518766 heartbeat IPC: 2.322 cumulative IPC: 2.316 (Simulation time: 01 hr 16 min 17 sec)
Heartbeat CPU 0 instructions: 1060000000 cycles: 281843000 heartbeat IPC: 2.313 cumulative IPC: 2.315 (Simulation time: 01 hr 17 min 28 sec)
Heartbeat CPU 0 instructions: 1070000003 cycles: 286173615 heartbeat IPC: 2.309 cumulative IPC: 2.314 (Simulation time: 01 hr 18 min 40 sec)
Heartbeat CPU 0 instructions: 1080000002 cycles: 290514864 heartbeat IPC: 2.303 cumulative IPC: 2.313 (Simulation time: 01 hr 19 min 52 sec)
Heartbeat CPU 0 instructions: 1090000002 cycles: 294828140 heartbeat IPC: 2.318 cumulative IPC: 2.314 (Simulation time: 01 hr 21 min 04 sec)
Heartbeat CPU 0 instructions: 1100000003 cycles: 299139352 heartbeat IPC: 2.32 cumulative IPC: 2.314 (Simulation time: 01 hr 22 min 16 sec)
Heartbeat CPU 0 instructions: 1110000003 cycles: 303476723 heartbeat IPC: 2.306 cumulative IPC: 2.313 (Simulation time: 01 hr 23 min 27 sec)
Heartbeat CPU 0 instructions: 1120000001 cycles: 308058958 heartbeat IPC: 2.182 cumulative IPC: 2.302 (Simulation time: 01 hr 24 min 35 sec)
Heartbeat CPU 0 instructions: 1130000000 cycles: 312328136 heartbeat IPC: 2.342 cumulative IPC: 2.305 (Simulation time: 01 hr 25 min 46 sec)
Heartbeat CPU 0 instructions: 1140000004 cycles: 316647718 heartbeat IPC: 2.315 cumulative IPC: 2.306 (Simulation time: 01 hr 26 min 56 sec)
Heartbeat CPU 0 instructions: 1150000004 cycles: 320972336 heartbeat IPC: 2.312 cumulative IPC: 2.306 (Simulation time: 01 hr 28 min 07 sec)
Heartbeat CPU 0 instructions: 1160000001 cycles: 325312713 heartbeat IPC: 2.304 cumulative IPC: 2.306 (Simulation time: 01 hr 29 min 18 sec)
Heartbeat CPU 0 instructions: 1170000001 cycles: 329651236 heartbeat IPC: 2.305 cumulative IPC: 2.306 (Simulation time: 01 hr 30 min 28 sec)
Heartbeat CPU 0 instructions: 1180000004 cycles: 333960035 heartbeat IPC: 2.321 cumulative IPC: 2.307 (Simulation time: 01 hr 31 min 39 sec)
Heartbeat CPU 0 instructions: 1190000000 cycles: 338277641 heartbeat IPC: 2.316 cumulative IPC: 2.307 (Simulation time: 01 hr 32 min 50 sec)
Heartbeat CPU 0 instructions: 1200000001 cycles: 342669037 heartbeat IPC: 2.277 cumulative IPC: 2.306 (Simulation time: 01 hr 34 min 01 sec)
Heartbeat CPU 0 instructions: 1210000004 cycles: 347032863 heartbeat IPC: 2.292 cumulative IPC: 2.305 (Simulation time: 01 hr 35 min 12 sec)
Heartbeat CPU 0 instructions: 1220000000 cycles: 351395111 heartbeat IPC: 2.292 cumulative IPC: 2.304 (Simulation time: 01 hr 36 min 22 sec)
Heartbeat CPU 0 instructions: 1230000003 cycles: 355699942 heartbeat IPC: 2.323 cumulative IPC: 2.305 (Simulation time: 01 hr 37 min 32 sec)
Heartbeat CPU 0 instructions: 1240000003 cycles: 360013822 heartbeat IPC: 2.318 cumulative IPC: 2.306 (Simulation time: 01 hr 38 min 20 sec)
Heartbeat CPU 0 instructions: 1250000002 cycles: 364352339 heartbeat IPC: 2.305 cumulative IPC: 2.306 (Simulation time: 01 hr 38 min 59 sec)
Heartbeat CPU 0 instructions: 1260000004 cycles: 368659125 heartbeat IPC: 2.322 cumulative IPC: 2.306 (Simulation time: 01 hr 39 min 38 sec)
Heartbeat CPU 0 instructions: 1270000001 cycles: 373268228 heartbeat IPC: 2.17 cumulative IPC: 2.301 (Simulation time: 01 hr 40 min 19 sec)
Heartbeat CPU 0 instructions: 1280000003 cycles: 377613949 heartbeat IPC: 2.301 cumulative IPC: 2.301 (Simulation time: 01 hr 40 min 58 sec)
Heartbeat CPU 0 instructions: 1290000002 cycles: 381910508 heartbeat IPC: 2.327 cumulative IPC: 2.302 (Simulation time: 01 hr 41 min 37 sec)
Heartbeat CPU 0 instructions: 1300000002 cycles: 386259381 heartbeat IPC: 2.299 cumulative IPC: 2.302 (Simulation time: 01 hr 42 min 16 sec)
Heartbeat CPU 0 instructions: 1310000001 cycles: 390582276 heartbeat IPC: 2.313 cumulative IPC: 2.302 (Simulation time: 01 hr 42 min 54 sec)
Heartbeat CPU 0 instructions: 1320000004 cycles: 394884510 heartbeat IPC: 2.324 cumulative IPC: 2.303 (Simulation time: 01 hr 43 min 33 sec)
Heartbeat CPU 0 instructions: 1330000000 cycles: 399177826 heartbeat IPC: 2.329 cumulative IPC: 2.304 (Simulation time: 01 hr 44 min 11 sec)
Heartbeat CPU 0 instructions: 1340000003 cycles: 403478787 heartbeat IPC: 2.325 cumulative IPC: 2.304 (Simulation time: 01 hr 44 min 50 sec)
Heartbeat CPU 0 instructions: 1350000002 cycles: 407823101 heartbeat IPC: 2.302 cumulative IPC: 2.304 (Simulation time: 01 hr 45 min 29 sec)
Heartbeat CPU 0 instructions: 1360000003 cycles: 412184122 heartbeat IPC: 2.293 cumulative IPC: 2.304 (Simulation time: 01 hr 46 min 08 sec)
Heartbeat CPU 0 instructions: 1370000002 cycles: 416512538 heartbeat IPC: 2.31 cumulative IPC: 2.304 (Simulation time: 01 hr 46 min 46 sec)
Heartbeat CPU 0 instructions: 1380000001 cycles: 420848606 heartbeat IPC: 2.306 cumulative IPC: 2.304 (Simulation time: 01 hr 47 min 25 sec)
Heartbeat CPU 0 instructions: 1390000003 cycles: 425167340 heartbeat IPC: 2.315 cumulative IPC: 2.304 (Simulation time: 01 hr 48 min 04 sec)
Heartbeat CPU 0 instructions: 1400000001 cycles: 429484419 heartbeat IPC: 2.316 cumulative IPC: 2.305 (Simulation time: 01 hr 48 min 41 sec)
Heartbeat CPU 0 instructions: 1410000001 cycles: 433817677 heartbeat IPC: 2.308 cumulative IPC: 2.305 (Simulation time: 01 hr 49 min 14 sec)
Heartbeat CPU 0 instructions: 1420000004 cycles: 438405218 heartbeat IPC: 2.18 cumulative IPC: 2.302 (Simulation time: 01 hr 49 min 49 sec)
Heartbeat CPU 0 instructions: 1430000002 cycles: 442731230 heartbeat IPC: 2.312 cumulative IPC: 2.302 (Simulation time: 01 hr 50 min 23 sec)
Heartbeat CPU 0 instructions: 1440000003 cycles: 447072825 heartbeat IPC: 2.303 cumulative IPC: 2.302 (Simulation time: 01 hr 50 min 57 sec)
Heartbeat CPU 0 instructions: 1450000004 cycles: 451381216 heartbeat IPC: 2.321 cumulative IPC: 2.302 (Simulation time: 01 hr 51 min 30 sec)
Heartbeat CPU 0 instructions: 1460000002 cycles: 455678734 heartbeat IPC: 2.327 cumulative IPC: 2.303 (Simulation time: 01 hr 52 min 04 sec)
Heartbeat CPU 0 instructions: 1470000001 cycles: 459991932 heartbeat IPC: 2.318 cumulative IPC: 2.303 (Simulation time: 01 hr 52 min 38 sec)
Heartbeat CPU 0 instructions: 1480000003 cycles: 464329420 heartbeat IPC: 2.305 cumulative IPC: 2.303 (Simulation time: 01 hr 53 min 12 sec)
Heartbeat CPU 0 instructions: 1490000002 cycles: 468646740 heartbeat IPC: 2.316 cumulative IPC: 2.304 (Simulation time: 01 hr 53 min 45 sec)
Heartbeat CPU 0 instructions: 1500000000 cycles: 472965015 heartbeat IPC: 2.316 cumulative IPC: 2.304 (Simulation time: 01 hr 54 min 19 sec)
Simulation finished CPU 0 instructions: 500000001 cycles: 217037130 cumulative IPC: 2.304 (Simulation time: 01 hr 54 min 19 sec)
Simulation complete CPU 0 instructions: 500000001 cycles: 217037130 cumulative IPC: 2.304 (Simulation time: 01 hr 54 min 19 sec)

ChampSim completed all CPUs

=== Simulation ===
CPU 0 runs traces/607.cactuBSSN_s-3477B.champsimtrace.xz
Region of Interest Statistics

CPU 0 cumulative IPC: 2.304 instructions: 500000001 cycles: 217037130
CPU 0 Branch Prediction Accuracy: 91.82% MPKI: 0.7258 Average ROB Occupancy at Mispredict: 223.6
Branch type MPKI
BRANCH_DIRECT_JUMP: 1.4e-05
BRANCH_INDIRECT: 4e-06
BRANCH_CONDITIONAL: 0.364
BRANCH_DIRECT_CALL: 6e-06
BRANCH_INDIRECT_CALL: 0
BRANCH_RETURN: 0.362

LLC TOTAL        ACCESS:    2549922 HIT:    1217892 MISS:    1332030
LLC LOAD         ACCESS:    1939625 HIT:     915791 MISS:    1023834
LLC RFO          ACCESS:     292747 HIT:         15 MISS:     292732
LLC PREFETCH     ACCESS:          0 HIT:          0 MISS:          0
LLC WRITE        ACCESS:     292785 HIT:     292785 MISS:          0
LLC TRANSLATION  ACCESS:      24765 HIT:       9301 MISS:      15464
LLC PREFETCH REQUESTED:          0 ISSUED:          0 USEFUL:          0 USELESS:          0
LLC AVERAGE MISS LATENCY: 654.6 cycles
cpu0_DTLB TOTAL        ACCESS:  125582812 HIT:  103522529 MISS:   22060283
cpu0_DTLB LOAD         ACCESS:  125582812 HIT:  103522529 MISS:   22060283
cpu0_DTLB RFO          ACCESS:          0 HIT:          0 MISS:          0
cpu0_DTLB PREFETCH     ACCESS:          0 HIT:          0 MISS:          0
cpu0_DTLB WRITE        ACCESS:          0 HIT:          0 MISS:          0
cpu0_DTLB TRANSLATION  ACCESS:          0 HIT:          0 MISS:          0
cpu0_DTLB PREFETCH REQUESTED:          0 ISSUED:          0 USEFUL:          0 USELESS:          0
cpu0_DTLB AVERAGE MISS LATENCY: 6.893 cycles
cpu0_ITLB TOTAL        ACCESS:   58705992 HIT:   58705992 MISS:          0
cpu0_ITLB LOAD         ACCESS:   58705992 HIT:   58705992 MISS:          0
cpu0_ITLB RFO          ACCESS:          0 HIT:          0 MISS:          0
cpu0_ITLB PREFETCH     ACCESS:          0 HIT:          0 MISS:          0
cpu0_ITLB WRITE        ACCESS:          0 HIT:          0 MISS:          0
cpu0_ITLB TRANSLATION  ACCESS:          0 HIT:          0 MISS:          0
cpu0_ITLB PREFETCH REQUESTED:          0 ISSUED:          0 USEFUL:          0 USELESS:          0
cpu0_ITLB AVERAGE MISS LATENCY: -nan cycles
cpu0_L1D TOTAL        ACCESS:  168135734 HIT:  129425230 MISS:   38710504
cpu0_L1D LOAD         ACCESS:  128301303 HIT:   93224441 MISS:   35076862
cpu0_L1D RFO          ACCESS:          0 HIT:          0 MISS:          0
cpu0_L1D PREFETCH     ACCESS:          0 HIT:          0 MISS:          0
cpu0_L1D WRITE        ACCESS:   39802956 HIT:   36200607 MISS:    3602349
cpu0_L1D TRANSLATION  ACCESS:      31475 HIT:        182 MISS:      31293
cpu0_L1D PREFETCH REQUESTED:          0 ISSUED:          0 USEFUL:          0 USELESS:          0
cpu0_L1D AVERAGE MISS LATENCY: 33.48 cycles
cpu0_L1I TOTAL        ACCESS:   83692561 HIT:   59062607 MISS:   24629954
cpu0_L1I LOAD         ACCESS:   83692561 HIT:   59062607 MISS:   24629954
cpu0_L1I RFO          ACCESS:          0 HIT:          0 MISS:          0
cpu0_L1I PREFETCH     ACCESS:          0 HIT:          0 MISS:          0
cpu0_L1I WRITE        ACCESS:          0 HIT:          0 MISS:          0
cpu0_L1I TRANSLATION  ACCESS:          0 HIT:          0 MISS:          0
cpu0_L1I PREFETCH REQUESTED:          0 ISSUED:          0 USEFUL:          0 USELESS:          0
cpu0_L1I AVERAGE MISS LATENCY: 5.618 cycles
cpu0_L2C TOTAL        ACCESS:   53606890 HIT:   51349599 MISS:    2257291
cpu0_L2C LOAD         ACCESS:   47581126 HIT:   45641501 MISS:    1939625
cpu0_L2C RFO          ACCESS:    3078939 HIT:    2786191 MISS:     292748
cpu0_L2C PREFETCH     ACCESS:          0 HIT:          0 MISS:          0
cpu0_L2C WRITE        ACCESS:    2915568 HIT:    2915415 MISS:        153
cpu0_L2C TRANSLATION  ACCESS:      31257 HIT:       6492 MISS:      24765
cpu0_L2C PREFETCH REQUESTED:          0 ISSUED:          0 USEFUL:          0 USELESS:          0
cpu0_L2C AVERAGE MISS LATENCY: 406.9 cycles
cpu0_STLB TOTAL        ACCESS:   19060319 HIT:   19039484 MISS:      20835
cpu0_STLB LOAD         ACCESS:   19060319 HIT:   19039484 MISS:      20835
cpu0_STLB RFO          ACCESS:          0 HIT:          0 MISS:          0
cpu0_STLB PREFETCH     ACCESS:          0 HIT:          0 MISS:          0
cpu0_STLB WRITE        ACCESS:          0 HIT:          0 MISS:          0
cpu0_STLB TRANSLATION  ACCESS:          0 HIT:          0 MISS:          0
cpu0_STLB PREFETCH REQUESTED:          0 ISSUED:          0 USEFUL:          0 USELESS:          0
cpu0_STLB AVERAGE MISS LATENCY: 602.3 cycles

DRAM Statistics

Channel 0 RQ ROW_BUFFER_HIT:     778272
  ROW_BUFFER_MISS:     553758
 AVG DBUS CONGESTED CYCLE: 3.953
WQ ROW_BUFFER_HIT: Channel 0 
  ROW_BUFFER_MISS:      49495
  FULL:     243096
