WARNING: physical memory size is smaller than virtual memory size.

*** ChampSim Multicore Out-of-Order Simulator ***
Warmup Instructions: 1000000000
Simulation Instructions: 500000000
Number of CPUs: 1
Page size: 4096

Off-chip DRAM Size: 4 GiB Channels: 1 Width: 64-bit Data Race: 3200 MT/s
Heartbeat CPU 0 instructions: 10000000 cycles: 2500066 heartbeat IPC: 4 cumulative IPC: 4 (Simulation time: 00 hr 00 min 16 sec)
Heartbeat CPU 0 instructions: 20000000 cycles: 5000066 heartbeat IPC: 4 cumulative IPC: 4 (Simulation time: 00 hr 00 min 32 sec)
Heartbeat CPU 0 instructions: 30000000 cycles: 7500066 heartbeat IPC: 4 cumulative IPC: 4 (Simulation time: 00 hr 00 min 48 sec)
Heartbeat CPU 0 instructions: 40000000 cycles: 10000066 heartbeat IPC: 4 cumulative IPC: 4 (Simulation time: 00 hr 01 min 04 sec)
Heartbeat CPU 0 instructions: 50000002 cycles: 12500104 heartbeat IPC: 4 cumulative IPC: 4 (Simulation time: 00 hr 01 min 28 sec)
Heartbeat CPU 0 instructions: 60000000 cycles: 15000208 heartbeat IPC: 4 cumulative IPC: 4 (Simulation time: 00 hr 01 min 49 sec)
Heartbeat CPU 0 instructions: 70000000 cycles: 17500208 heartbeat IPC: 4 cumulative IPC: 4 (Simulation time: 00 hr 02 min 09 sec)
Heartbeat CPU 0 instructions: 80000000 cycles: 20000208 heartbeat IPC: 4 cumulative IPC: 4 (Simulation time: 00 hr 02 min 30 sec)
Heartbeat CPU 0 instructions: 90000000 cycles: 22500208 heartbeat IPC: 4 cumulative IPC: 4 (Simulation time: 00 hr 02 min 50 sec)
Heartbeat CPU 0 instructions: 100000001 cycles: 25000508 heartbeat IPC: 4 cumulative IPC: 4 (Simulation time: 00 hr 03 min 11 sec)
Heartbeat CPU 0 instructions: 110000001 cycles: 27500508 heartbeat IPC: 4 cumulative IPC: 4 (Simulation time: 00 hr 03 min 32 sec)
Heartbeat CPU 0 instructions: 120000001 cycles: 30000508 heartbeat IPC: 4 cumulative IPC: 4 (Simulation time: 00 hr 03 min 58 sec)
Heartbeat CPU 0 instructions: 130000003 cycles: 32500553 heartbeat IPC: 4 cumulative IPC: 4 (Simulation time: 00 hr 04 min 20 sec)
Heartbeat CPU 0 instructions: 140000001 cycles: 35000597 heartbeat IPC: 4 cumulative IPC: 4 (Simulation time: 00 hr 04 min 41 sec)
Heartbeat CPU 0 instructions: 150000001 cycles: 37500597 heartbeat IPC: 4 cumulative IPC: 4 (Simulation time: 00 hr 05 min 13 sec)
Heartbeat CPU 0 instructions: 160000001 cycles: 40000597 heartbeat IPC: 4 cumulative IPC: 4 (Simulation time: 00 hr 05 min 33 sec)
Heartbeat CPU 0 instructions: 170000000 cycles: 42500922 heartbeat IPC: 3.999 cumulative IPC: 4 (Simulation time: 00 hr 05 min 54 sec)
Heartbeat CPU 0 instructions: 180000000 cycles: 45000922 heartbeat IPC: 4 cumulative IPC: 4 (Simulation time: 00 hr 06 min 15 sec)
Heartbeat CPU 0 instructions: 190000000 cycles: 47500922 heartbeat IPC: 4 cumulative IPC: 4 (Simulation time: 00 hr 06 min 35 sec)
Heartbeat CPU 0 instructions: 200000000 cycles: 50000955 heartbeat IPC: 4 cumulative IPC: 4 (Simulation time: 00 hr 06 min 56 sec)
Heartbeat CPU 0 instructions: 210000000 cycles: 52500955 heartbeat IPC: 4 cumulative IPC: 4 (Simulation time: 00 hr 07 min 16 sec)
Heartbeat CPU 0 instructions: 220000000 cycles: 55000955 heartbeat IPC: 4 cumulative IPC: 4 (Simulation time: 00 hr 07 min 37 sec)
Heartbeat CPU 0 instructions: 230000000 cycles: 57500955 heartbeat IPC: 4 cumulative IPC: 4 (Simulation time: 00 hr 07 min 57 sec)
Heartbeat CPU 0 instructions: 240000001 cycles: 60001103 heartbeat IPC: 4 cumulative IPC: 4 (Simulation time: 00 hr 08 min 18 sec)
Heartbeat CPU 0 instructions: 250000003 cycles: 62501282 heartbeat IPC: 4 cumulative IPC: 4 (Simulation time: 00 hr 08 min 39 sec)
Heartbeat CPU 0 instructions: 260000003 cycles: 65001282 heartbeat IPC: 4 cumulative IPC: 4 (Simulation time: 00 hr 08 min 59 sec)
Heartbeat CPU 0 instructions: 270000003 cycles: 67501282 heartbeat IPC: 4 cumulative IPC: 4 (Simulation time: 00 hr 09 min 20 sec)
Heartbeat CPU 0 instructions: 280000003 cycles: 70001282 heartbeat IPC: 4 cumulative IPC: 4 (Simulation time: 00 hr 09 min 40 sec)
Heartbeat CPU 0 instructions: 290000003 cycles: 72501423 heartbeat IPC: 4 cumulative IPC: 4 (Simulation time: 00 hr 10 min 01 sec)
Heartbeat CPU 0 instructions: 300000003 cycles: 75001423 heartbeat IPC: 4 cumulative IPC: 4 (Simulation time: 00 hr 10 min 22 sec)
Heartbeat CPU 0 instructions: 310000002 cycles: 77501615 heartbeat IPC: 4 cumulative IPC: 4 (Simulation time: 00 hr 10 min 42 sec)
Heartbeat CPU 0 instructions: 320000003 cycles: 80001862 heartbeat IPC: 4 cumulative IPC: 4 (Simulation time: 00 hr 11 min 03 sec)
Heartbeat CPU 0 instructions: 330000002 cycles: 82504493 heartbeat IPC: 3.996 cumulative IPC: 4 (Simulation time: 00 hr 11 min 24 sec)
Heartbeat CPU 0 instructions: 340000000 cycles: 85004612 heartbeat IPC: 4 cumulative IPC: 4 (Simulation time: 00 hr 11 min 44 sec)
Heartbeat CPU 0 instructions: 350000000 cycles: 87504612 heartbeat IPC: 4 cumulative IPC: 4 (Simulation time: 00 hr 12 min 05 sec)
Heartbeat CPU 0 instructions: 360000001 cycles: 90011907 heartbeat IPC: 3.988 cumulative IPC: 3.999 (Simulation time: 00 hr 12 min 25 sec)
Heartbeat CPU 0 instructions: 370000001 cycles: 92511907 heartbeat IPC: 4 cumulative IPC: 3.999 (Simulation time: 00 hr 12 min 46 sec)
Heartbeat CPU 0 instructions: 380000002 cycles: 95011915 heartbeat IPC: 4 cumulative IPC: 3.999 (Simulation time: 00 hr 13 min 06 sec)
Heartbeat CPU 0 instructions: 390000003 cycles: 97511925 heartbeat IPC: 4 cumulative IPC: 4 (Simulation time: 00 hr 13 min 27 sec)
Heartbeat CPU 0 instructions: 400000003 cycles: 100011925 heartbeat IPC: 4 cumulative IPC: 4 (Simulation time: 00 hr 13 min 48 sec)
Heartbeat CPU 0 instructions: 410000003 cycles: 102511925 heartbeat IPC: 4 cumulative IPC: 4 (Simulation time: 00 hr 14 min 08 sec)
Heartbeat CPU 0 instructions: 420000003 cycles: 105011977 heartbeat IPC: 4 cumulative IPC: 4 (Simulation time: 00 hr 14 min 29 sec)
Heartbeat CPU 0 instructions: 430000001 cycles: 107512015 heartbeat IPC: 4 cumulative IPC: 4 (Simulation time: 00 hr 14 min 49 sec)
Heartbeat CPU 0 instructions: 440000003 cycles: 110019344 heartbeat IPC: 3.988 cumulative IPC: 3.999 (Simulation time: 00 hr 15 min 10 sec)
Heartbeat CPU 0 instructions: 450000003 cycles: 112519344 heartbeat IPC: 4 cumulative IPC: 3.999 (Simulation time: 00 hr 15 min 31 sec)
Heartbeat CPU 0 instructions: 460000003 cycles: 115019344 heartbeat IPC: 4 cumulative IPC: 3.999 (Simulation time: 00 hr 15 min 52 sec)
Heartbeat CPU 0 instructions: 470000003 cycles: 117528404 heartbeat IPC: 3.986 cumulative IPC: 3.999 (Simulation time: 00 hr 16 min 14 sec)
Heartbeat CPU 0 instructions: 480000003 cycles: 120032222 heartbeat IPC: 3.994 cumulative IPC: 3.999 (Simulation time: 00 hr 16 min 45 sec)
Heartbeat CPU 0 instructions: 490000000 cycles: 122532479 heartbeat IPC: 4 cumulative IPC: 3.999 (Simulation time: 00 hr 17 min 06 sec)
Heartbeat CPU 0 instructions: 500000001 cycles: 125032627 heartbeat IPC: 4 cumulative IPC: 3.999 (Simulation time: 00 hr 17 min 27 sec)
Heartbeat CPU 0 instructions: 510000002 cycles: 127533086 heartbeat IPC: 3.999 cumulative IPC: 3.999 (Simulation time: 00 hr 17 min 59 sec)
Heartbeat CPU 0 instructions: 520000002 cycles: 130042258 heartbeat IPC: 3.985 cumulative IPC: 3.999 (Simulation time: 00 hr 18 min 26 sec)
Heartbeat CPU 0 instructions: 530000003 cycles: 132542627 heartbeat IPC: 3.999 cumulative IPC: 3.999 (Simulation time: 00 hr 18 min 49 sec)
Heartbeat CPU 0 instructions: 540000000 cycles: 135053312 heartbeat IPC: 3.983 cumulative IPC: 3.998 (Simulation time: 00 hr 19 min 11 sec)
Heartbeat CPU 0 instructions: 550000002 cycles: 137558146 heartbeat IPC: 3.992 cumulative IPC: 3.998 (Simulation time: 00 hr 19 min 33 sec)
Heartbeat CPU 0 instructions: 560000002 cycles: 140058146 heartbeat IPC: 4 cumulative IPC: 3.998 (Simulation time: 00 hr 19 min 53 sec)
Heartbeat CPU 0 instructions: 570000002 cycles: 142558146 heartbeat IPC: 4 cumulative IPC: 3.998 (Simulation time: 00 hr 20 min 14 sec)
Heartbeat CPU 0 instructions: 580000002 cycles: 145058146 heartbeat IPC: 4 cumulative IPC: 3.998 (Simulation time: 00 hr 20 min 35 sec)
Heartbeat CPU 0 instructions: 590000000 cycles: 147558933 heartbeat IPC: 3.999 cumulative IPC: 3.998 (Simulation time: 00 hr 20 min 55 sec)
Heartbeat CPU 0 instructions: 600000003 cycles: 150059675 heartbeat IPC: 3.999 cumulative IPC: 3.998 (Simulation time: 00 hr 21 min 17 sec)
Heartbeat CPU 0 instructions: 610000002 cycles: 152560726 heartbeat IPC: 3.998 cumulative IPC: 3.998 (Simulation time: 00 hr 21 min 39 sec)
Heartbeat CPU 0 instructions: 620000002 cycles: 155064292 heartbeat IPC: 3.994 cumulative IPC: 3.998 (Simulation time: 00 hr 22 min 01 sec)
Heartbeat CPU 0 instructions: 630000003 cycles: 157565652 heartbeat IPC: 3.998 cumulative IPC: 3.998 (Simulation time: 00 hr 22 min 22 sec)
Heartbeat CPU 0 instructions: 640000002 cycles: 160065787 heartbeat IPC: 4 cumulative IPC: 3.998 (Simulation time: 00 hr 22 min 44 sec)
Heartbeat CPU 0 instructions: 650000000 cycles: 162566149 heartbeat IPC: 3.999 cumulative IPC: 3.998 (Simulation time: 00 hr 23 min 06 sec)
Heartbeat CPU 0 instructions: 660000002 cycles: 165068548 heartbeat IPC: 3.996 cumulative IPC: 3.998 (Simulation time: 00 hr 23 min 27 sec)
Heartbeat CPU 0 instructions: 670000002 cycles: 167568650 heartbeat IPC: 4 cumulative IPC: 3.998 (Simulation time: 00 hr 23 min 49 sec)
Heartbeat CPU 0 instructions: 680000003 cycles: 170068789 heartbeat IPC: 4 cumulative IPC: 3.998 (Simulation time: 00 hr 24 min 11 sec)
Heartbeat CPU 0 instructions: 690000000 cycles: 172597160 heartbeat IPC: 3.955 cumulative IPC: 3.998 (Simulation time: 00 hr 24 min 33 sec)
Heartbeat CPU 0 instructions: 700000000 cycles: 175097160 heartbeat IPC: 4 cumulative IPC: 3.998 (Simulation time: 00 hr 24 min 53 sec)
Heartbeat CPU 0 instructions: 710000002 cycles: 177597357 heartbeat IPC: 4 cumulative IPC: 3.998 (Simulation time: 00 hr 25 min 14 sec)
Heartbeat CPU 0 instructions: 720000003 cycles: 180097530 heartbeat IPC: 4 cumulative IPC: 3.998 (Simulation time: 00 hr 25 min 34 sec)
Heartbeat CPU 0 instructions: 730000003 cycles: 182597530 heartbeat IPC: 4 cumulative IPC: 3.998 (Simulation time: 00 hr 25 min 54 sec)
Heartbeat CPU 0 instructions: 740000003 cycles: 185097530 heartbeat IPC: 4 cumulative IPC: 3.998 (Simulation time: 00 hr 26 min 15 sec)
Heartbeat CPU 0 instructions: 750000003 cycles: 187597966 heartbeat IPC: 3.999 cumulative IPC: 3.998 (Simulation time: 00 hr 26 min 36 sec)
Heartbeat CPU 0 instructions: 760000001 cycles: 190098358 heartbeat IPC: 3.999 cumulative IPC: 3.998 (Simulation time: 00 hr 26 min 56 sec)
Heartbeat CPU 0 instructions: 770000002 cycles: 192598484 heartbeat IPC: 4 cumulative IPC: 3.998 (Simulation time: 00 hr 27 min 17 sec)
Heartbeat CPU 0 instructions: 780000002 cycles: 195098484 heartbeat IPC: 4 cumulative IPC: 3.998 (Simulation time: 00 hr 27 min 37 sec)
Heartbeat CPU 0 instructions: 790000003 cycles: 197598848 heartbeat IPC: 3.999 cumulative IPC: 3.998 (Simulation time: 00 hr 27 min 57 sec)
Heartbeat CPU 0 instructions: 800000000 cycles: 200099145 heartbeat IPC: 4 cumulative IPC: 3.998 (Simulation time: 00 hr 28 min 18 sec)
Heartbeat CPU 0 instructions: 810000001 cycles: 202599877 heartbeat IPC: 3.999 cumulative IPC: 3.998 (Simulation time: 00 hr 28 min 38 sec)
Heartbeat CPU 0 instructions: 820000001 cycles: 205099877 heartbeat IPC: 4 cumulative IPC: 3.998 (Simulation time: 00 hr 28 min 59 sec)
Heartbeat CPU 0 instructions: 830000001 cycles: 207599877 heartbeat IPC: 4 cumulative IPC: 3.998 (Simulation time: 00 hr 29 min 19 sec)
Heartbeat CPU 0 instructions: 840000003 cycles: 210100051 heartbeat IPC: 4 cumulative IPC: 3.998 (Simulation time: 00 hr 29 min 40 sec)
Heartbeat CPU 0 instructions: 850000003 cycles: 212601511 heartbeat IPC: 3.998 cumulative IPC: 3.998 (Simulation time: 00 hr 30 min 01 sec)
Heartbeat CPU 0 instructions: 860000003 cycles: 215101511 heartbeat IPC: 4 cumulative IPC: 3.998 (Simulation time: 00 hr 30 min 28 sec)
Heartbeat CPU 0 instructions: 870000003 cycles: 217601511 heartbeat IPC: 4 cumulative IPC: 3.998 (Simulation time: 00 hr 30 min 52 sec)
Heartbeat CPU 0 instructions: 880000002 cycles: 220102349 heartbeat IPC: 3.999 cumulative IPC: 3.998 (Simulation time: 00 hr 31 min 13 sec)
Heartbeat CPU 0 instructions: 890000002 cycles: 222602349 heartbeat IPC: 4 cumulative IPC: 3.998 (Simulation time: 00 hr 31 min 33 sec)
Heartbeat CPU 0 instructions: 900000002 cycles: 225102597 heartbeat IPC: 4 cumulative IPC: 3.998 (Simulation time: 00 hr 31 min 54 sec)
Heartbeat CPU 0 instructions: 910000000 cycles: 227602980 heartbeat IPC: 3.999 cumulative IPC: 3.998 (Simulation time: 00 hr 32 min 15 sec)
Heartbeat CPU 0 instructions: 920000001 cycles: 230103362 heartbeat IPC: 3.999 cumulative IPC: 3.998 (Simulation time: 00 hr 32 min 35 sec)
Heartbeat CPU 0 instructions: 930000003 cycles: 232603616 heartbeat IPC: 4 cumulative IPC: 3.998 (Simulation time: 00 hr 32 min 56 sec)
Heartbeat CPU 0 instructions: 940000003 cycles: 235103616 heartbeat IPC: 4 cumulative IPC: 3.998 (Simulation time: 00 hr 33 min 17 sec)
Heartbeat CPU 0 instructions: 950000003 cycles: 237603958 heartbeat IPC: 3.999 cumulative IPC: 3.998 (Simulation time: 00 hr 33 min 38 sec)
Heartbeat CPU 0 instructions: 960000000 cycles: 240104725 heartbeat IPC: 3.999 cumulative IPC: 3.998 (Simulation time: 00 hr 33 min 58 sec)
Heartbeat CPU 0 instructions: 970000003 cycles: 242604775 heartbeat IPC: 4 cumulative IPC: 3.998 (Simulation time: 00 hr 34 min 19 sec)
Heartbeat CPU 0 instructions: 980000002 cycles: 245104779 heartbeat IPC: 4 cumulative IPC: 3.998 (Simulation time: 00 hr 34 min 44 sec)
Heartbeat CPU 0 instructions: 990000000 cycles: 247606289 heartbeat IPC: 3.998 cumulative IPC: 3.998 (Simulation time: 00 hr 35 min 21 sec)
Heartbeat CPU 0 instructions: 1000000000 cycles: 250106289 heartbeat IPC: 4 cumulative IPC: 3.998 (Simulation time: 00 hr 35 min 58 sec)
Warmup finished CPU 0 instructions: 1000000000 cycles: 250106290 cumulative IPC: 3.998 (Simulation time: 00 hr 35 min 58 sec)
Warmup complete CPU 0 instructions: 1000000000 cycles: 250106290 cumulative IPC: 3.998 (Simulation time: 00 hr 35 min 58 sec)
Heartbeat CPU 0 instructions: 1010000001 cycles: 253127582 heartbeat IPC: 3.31 cumulative IPC: 3.31 (Simulation time: 00 hr 36 min 40 sec)
Heartbeat CPU 0 instructions: 1020000003 cycles: 256040864 heartbeat IPC: 3.433 cumulative IPC: 3.37 (Simulation time: 00 hr 37 min 04 sec)
Heartbeat CPU 0 instructions: 1030000000 cycles: 259115655 heartbeat IPC: 3.252 cumulative IPC: 3.33 (Simulation time: 00 hr 37 min 29 sec)
Heartbeat CPU 0 instructions: 1040000000 cycles: 262131474 heartbeat IPC: 3.316 cumulative IPC: 3.326 (Simulation time: 00 hr 37 min 54 sec)
Heartbeat CPU 0 instructions: 1050000000 cycles: 265049037 heartbeat IPC: 3.428 cumulative IPC: 3.346 (Simulation time: 00 hr 38 min 19 sec)
Heartbeat CPU 0 instructions: 1060000001 cycles: 268037823 heartbeat IPC: 3.346 cumulative IPC: 3.346 (Simulation time: 00 hr 38 min 44 sec)
Heartbeat CPU 0 instructions: 1070000000 cycles: 271106019 heartbeat IPC: 3.259 cumulative IPC: 3.333 (Simulation time: 00 hr 39 min 09 sec)
Heartbeat CPU 0 instructions: 1080000003 cycles: 274106253 heartbeat IPC: 3.333 cumulative IPC: 3.333 (Simulation time: 00 hr 39 min 34 sec)
Heartbeat CPU 0 instructions: 1090000000 cycles: 277076640 heartbeat IPC: 3.367 cumulative IPC: 3.337 (Simulation time: 00 hr 39 min 59 sec)
Heartbeat CPU 0 instructions: 1100000000 cycles: 280016920 heartbeat IPC: 3.401 cumulative IPC: 3.343 (Simulation time: 00 hr 40 min 24 sec)
Heartbeat CPU 0 instructions: 1110000004 cycles: 283005128 heartbeat IPC: 3.346 cumulative IPC: 3.344 (Simulation time: 00 hr 40 min 48 sec)
Heartbeat CPU 0 instructions: 1120000000 cycles: 285916942 heartbeat IPC: 3.434 cumulative IPC: 3.351 (Simulation time: 00 hr 41 min 13 sec)
Heartbeat CPU 0 instructions: 1130000002 cycles: 288702683 heartbeat IPC: 3.59 cumulative IPC: 3.368 (Simulation time: 00 hr 41 min 39 sec)
Heartbeat CPU 0 instructions: 1140000001 cycles: 291796717 heartbeat IPC: 3.232 cumulative IPC: 3.358 (Simulation time: 00 hr 42 min 05 sec)
Heartbeat CPU 0 instructions: 1150000000 cycles: 294756131 heartbeat IPC: 3.379 cumulative IPC: 3.359 (Simulation time: 00 hr 42 min 38 sec)
Heartbeat CPU 0 instructions: 1160000000 cycles: 297690979 heartbeat IPC: 3.407 cumulative IPC: 3.362 (Simulation time: 00 hr 43 min 03 sec)
Heartbeat CPU 0 instructions: 1170000004 cycles: 300594166 heartbeat IPC: 3.444 cumulative IPC: 3.367 (Simulation time: 00 hr 43 min 27 sec)
Heartbeat CPU 0 instructions: 1180000004 cycles: 303672727 heartbeat IPC: 3.248 cumulative IPC: 3.36 (Simulation time: 00 hr 43 min 52 sec)
Heartbeat CPU 0 instructions: 1190000004 cycles: 306751354 heartbeat IPC: 3.248 cumulative IPC: 3.354 (Simulation time: 00 hr 44 min 17 sec)
Heartbeat CPU 0 instructions: 1200000000 cycles: 309579551 heartbeat IPC: 3.536 cumulative IPC: 3.363 (Simulation time: 00 hr 44 min 42 sec)
Heartbeat CPU 0 instructions: 1210000003 cycles: 312543269 heartbeat IPC: 3.374 cumulative IPC: 3.363 (Simulation time: 00 hr 45 min 07 sec)
Heartbeat CPU 0 instructions: 1220000002 cycles: 317326341 heartbeat IPC: 2.091 cumulative IPC: 3.273 (Simulation time: 00 hr 45 min 37 sec)
Heartbeat CPU 0 instructions: 1230000001 cycles: 323011484 heartbeat IPC: 1.759 cumulative IPC: 3.155 (Simulation time: 00 hr 46 min 11 sec)
Heartbeat CPU 0 instructions: 1240000000 cycles: 331007525 heartbeat IPC: 1.251 cumulative IPC: 2.967 (Simulation time: 00 hr 46 min 52 sec)
Heartbeat CPU 0 instructions: 1250000002 cycles: 339308264 heartbeat IPC: 1.205 cumulative IPC: 2.803 (Simulation time: 00 hr 47 min 33 sec)
Heartbeat CPU 0 instructions: 1260000002 cycles: 342674623 heartbeat IPC: 2.971 cumulative IPC: 2.809 (Simulation time: 00 hr 47 min 59 sec)
Heartbeat CPU 0 instructions: 1270000003 cycles: 345897854 heartbeat IPC: 3.102 cumulative IPC: 2.819 (Simulation time: 00 hr 48 min 25 sec)
Heartbeat CPU 0 instructions: 1280000001 cycles: 349264262 heartbeat IPC: 2.971 cumulative IPC: 2.824 (Simulation time: 00 hr 48 min 51 sec)
Heartbeat CPU 0 instructions: 1290000002 cycles: 352532924 heartbeat IPC: 3.059 cumulative IPC: 2.831 (Simulation time: 00 hr 49 min 17 sec)
Heartbeat CPU 0 instructions: 1300000001 cycles: 355847804 heartbeat IPC: 3.017 cumulative IPC: 2.837 (Simulation time: 00 hr 49 min 43 sec)
Heartbeat CPU 0 instructions: 1310000000 cycles: 359289079 heartbeat IPC: 2.906 cumulative IPC: 2.839 (Simulation time: 00 hr 50 min 09 sec)
Heartbeat CPU 0 instructions: 1320000002 cycles: 368192127 heartbeat IPC: 1.123 cumulative IPC: 2.71 (Simulation time: 00 hr 50 min 54 sec)
Heartbeat CPU 0 instructions: 1330000002 cycles: 377495678 heartbeat IPC: 1.075 cumulative IPC: 2.59 (Simulation time: 00 hr 51 min 39 sec)
Heartbeat CPU 0 instructions: 1340000002 cycles: 385098213 heartbeat IPC: 1.315 cumulative IPC: 2.519 (Simulation time: 00 hr 52 min 19 sec)
Heartbeat CPU 0 instructions: 1350000001 cycles: 388583354 heartbeat IPC: 2.869 cumulative IPC: 2.527 (Simulation time: 00 hr 52 min 45 sec)
Heartbeat CPU 0 instructions: 1360000001 cycles: 392110469 heartbeat IPC: 2.835 cumulative IPC: 2.535 (Simulation time: 00 hr 53 min 12 sec)
Heartbeat CPU 0 instructions: 1370000002 cycles: 395681966 heartbeat IPC: 2.8 cumulative IPC: 2.542 (Simulation time: 00 hr 53 min 39 sec)
Heartbeat CPU 0 instructions: 1380000000 cycles: 404580266 heartbeat IPC: 1.124 cumulative IPC: 2.46 (Simulation time: 00 hr 54 min 23 sec)
Heartbeat CPU 0 instructions: 1390000003 cycles: 413990444 heartbeat IPC: 1.063 cumulative IPC: 2.38 (Simulation time: 00 hr 55 min 06 sec)
Heartbeat CPU 0 instructions: 1400000001 cycles: 420276630 heartbeat IPC: 1.591 cumulative IPC: 2.351 (Simulation time: 00 hr 55 min 41 sec)
Heartbeat CPU 0 instructions: 1410000003 cycles: 423388717 heartbeat IPC: 3.213 cumulative IPC: 2.366 (Simulation time: 00 hr 56 min 06 sec)
Heartbeat CPU 0 instructions: 1420000002 cycles: 426468215 heartbeat IPC: 3.247 cumulative IPC: 2.381 (Simulation time: 00 hr 56 min 30 sec)
Heartbeat CPU 0 instructions: 1430000001 cycles: 429564403 heartbeat IPC: 3.23 cumulative IPC: 2.396 (Simulation time: 00 hr 56 min 54 sec)
Heartbeat CPU 0 instructions: 1440000004 cycles: 432621203 heartbeat IPC: 3.271 cumulative IPC: 2.411 (Simulation time: 00 hr 57 min 18 sec)
Heartbeat CPU 0 instructions: 1450000000 cycles: 435715020 heartbeat IPC: 3.232 cumulative IPC: 2.424 (Simulation time: 00 hr 57 min 43 sec)
Heartbeat CPU 0 instructions: 1460000000 cycles: 438819516 heartbeat IPC: 3.221 cumulative IPC: 2.438 (Simulation time: 00 hr 58 min 07 sec)
Heartbeat CPU 0 instructions: 1470000004 cycles: 441875136 heartbeat IPC: 3.273 cumulative IPC: 2.451 (Simulation time: 00 hr 58 min 31 sec)
Heartbeat CPU 0 instructions: 1480000002 cycles: 444919102 heartbeat IPC: 3.285 cumulative IPC: 2.464 (Simulation time: 00 hr 58 min 56 sec)
Heartbeat CPU 0 instructions: 1490000002 cycles: 447963892 heartbeat IPC: 3.284 cumulative IPC: 2.477 (Simulation time: 00 hr 59 min 20 sec)
Heartbeat CPU 0 instructions: 1500000001 cycles: 451085470 heartbeat IPC: 3.204 cumulative IPC: 2.488 (Simulation time: 00 hr 59 min 44 sec)
Simulation finished CPU 0 instructions: 500000001 cycles: 200979181 cumulative IPC: 2.488 (Simulation time: 00 hr 59 min 44 sec)
Simulation complete CPU 0 instructions: 500000001 cycles: 200979181 cumulative IPC: 2.488 (Simulation time: 00 hr 59 min 44 sec)

ChampSim completed all CPUs

=== Simulation ===
CPU 0 runs traces/600.perlbench_s-210B.champsimtrace.xz
Region of Interest Statistics

CPU 0 cumulative IPC: 2.488 instructions: 500000001 cycles: 200979181
CPU 0 Branch Prediction Accuracy: 96.5% MPKI: 5.255 Average ROB Occupancy at Mispredict: 48.95
Branch type MPKI
BRANCH_DIRECT_JUMP: 0.0578
BRANCH_INDIRECT: 0.296
BRANCH_CONDITIONAL: 4.72
BRANCH_DIRECT_CALL: 0.0136
BRANCH_INDIRECT_CALL: 0.154
BRANCH_RETURN: 0.0117

LLC TOTAL        ACCESS:     351880 HIT:     104253 MISS:     247627
LLC LOAD         ACCESS:     283198 HIT:      61224 MISS:     221974
LLC RFO          ACCESS:      16412 HIT:       4990 MISS:      11422
LLC PREFETCH     ACCESS:          0 HIT:          0 MISS:          0
LLC WRITE        ACCESS:      34801 HIT:      34644 MISS:        157
LLC TRANSLATION  ACCESS:      17469 HIT:       3395 MISS:      14074
LLC PREFETCH REQUESTED:          0 ISSUED:          0 USEFUL:          0 USELESS:          0
LLC AVERAGE MISS LATENCY: 171.9 cycles
cpu0_DTLB TOTAL        ACCESS:  118134716 HIT:  117354580 MISS:     780136
cpu0_DTLB LOAD         ACCESS:  118134716 HIT:  117354580 MISS:     780136
cpu0_DTLB RFO          ACCESS:          0 HIT:          0 MISS:          0
cpu0_DTLB PREFETCH     ACCESS:          0 HIT:          0 MISS:          0
cpu0_DTLB WRITE        ACCESS:          0 HIT:          0 MISS:          0
cpu0_DTLB TRANSLATION  ACCESS:          0 HIT:          0 MISS:          0
cpu0_DTLB PREFETCH REQUESTED:          0 ISSUED:          0 USEFUL:          0 USELESS:          0
cpu0_DTLB AVERAGE MISS LATENCY: 9.213 cycles
cpu0_ITLB TOTAL        ACCESS:    6596108 HIT:    6450046 MISS:     146062
cpu0_ITLB LOAD         ACCESS:    6596108 HIT:    6450046 MISS:     146062
cpu0_ITLB RFO          ACCESS:          0 HIT:          0 MISS:          0
cpu0_ITLB PREFETCH     ACCESS:          0 HIT:          0 MISS:          0
cpu0_ITLB WRITE        ACCESS:          0 HIT:          0 MISS:          0
cpu0_ITLB TRANSLATION  ACCESS:          0 HIT:          0 MISS:          0
cpu0_ITLB PREFETCH REQUESTED:          0 ISSUED:          0 USEFUL:          0 USELESS:          0
cpu0_ITLB AVERAGE MISS LATENCY: 3.087 cycles
cpu0_L1D TOTAL        ACCESS:  169092074 HIT:  168048448 MISS:    1043626
cpu0_L1D LOAD         ACCESS:   66463484 HIT:   65597274 MISS:     866210
cpu0_L1D RFO          ACCESS:          0 HIT:          0 MISS:          0
cpu0_L1D PREFETCH     ACCESS:          0 HIT:          0 MISS:          0
cpu0_L1D WRITE        ACCESS:  102601810 HIT:  102448905 MISS:     152905
cpu0_L1D TRANSLATION  ACCESS:      26780 HIT:       2269 MISS:      24511
cpu0_L1D PREFETCH REQUESTED:          0 ISSUED:          0 USEFUL:          0 USELESS:          0
cpu0_L1D AVERAGE MISS LATENCY: 48.38 cycles
cpu0_L1I TOTAL        ACCESS:    7335923 HIT:    6282108 MISS:    1053815
cpu0_L1I LOAD         ACCESS:    7335923 HIT:    6282108 MISS:    1053815
cpu0_L1I RFO          ACCESS:          0 HIT:          0 MISS:          0
cpu0_L1I PREFETCH     ACCESS:          0 HIT:          0 MISS:          0
cpu0_L1I WRITE        ACCESS:          0 HIT:          0 MISS:          0
cpu0_L1I TRANSLATION  ACCESS:          0 HIT:          0 MISS:          0
cpu0_L1I PREFETCH REQUESTED:          0 ISSUED:          0 USEFUL:          0 USELESS:          0
cpu0_L1I AVERAGE MISS LATENCY: 10.29 cycles
cpu0_L2C TOTAL        ACCESS:    1561378 HIT:    1243979 MISS:     317399
cpu0_L2C LOAD         ACCESS:    1388064 HIT:    1104866 MISS:     283198
cpu0_L2C RFO          ACCESS:      48576 HIT:      32164 MISS:      16412
cpu0_L2C PREFETCH     ACCESS:          0 HIT:          0 MISS:          0
cpu0_L2C WRITE        ACCESS:     100277 HIT:      99957 MISS:        320
cpu0_L2C TRANSLATION  ACCESS:      24461 HIT:       6992 MISS:      17469
cpu0_L2C PREFETCH REQUESTED:          0 ISSUED:          0 USEFUL:          0 USELESS:          0
cpu0_L2C AVERAGE MISS LATENCY: 154.9 cycles
cpu0_STLB TOTAL        ACCESS:     626987 HIT:     603495 MISS:      23492
cpu0_STLB LOAD         ACCESS:     626987 HIT:     603495 MISS:      23492
cpu0_STLB RFO          ACCESS:          0 HIT:          0 MISS:          0
cpu0_STLB PREFETCH     ACCESS:          0 HIT:          0 MISS:          0
cpu0_STLB WRITE        ACCESS:          0 HIT:          0 MISS:          0
cpu0_STLB TRANSLATION  ACCESS:          0 HIT:          0 MISS:          0
cpu0_STLB PREFETCH REQUESTED:          0 ISSUED:          0 USEFUL:          0 USELESS:          0
cpu0_STLB AVERAGE MISS LATENCY: 150.9 cycles

DRAM Statistics

Channel 0 RQ ROW_BUFFER_HIT:      60328
  ROW_BUFFER_MISS:     187139
 AVG DBUS CONGESTED CYCLE: 3.76
WQ ROW_BUFFER_HIT: Channel 0 
  ROW_BUFFER_MISS:      12725
  FULL:      12092
