WARNING: physical memory size is smaller than virtual memory size.

*** ChampSim Multicore Out-of-Order Simulator ***
Warmup Instructions: 1000000000
Simulation Instructions: 500000000
Number of CPUs: 1
Page size: 4096

Off-chip DRAM Size: 4 GiB Channels: 1 Width: 64-bit Data Race: 3200 MT/s
Heartbeat CPU 0 instructions: 10000000 cycles: 2500066 heartbeat IPC: 4 cumulative IPC: 4 (Simulation time: 00 hr 00 min 24 sec)
Heartbeat CPU 0 instructions: 20000000 cycles: 5000066 heartbeat IPC: 4 cumulative IPC: 4 (Simulation time: 00 hr 00 min 43 sec)
Heartbeat CPU 0 instructions: 30000000 cycles: 7500066 heartbeat IPC: 4 cumulative IPC: 4 (Simulation time: 00 hr 01 min 18 sec)
Heartbeat CPU 0 instructions: 40000000 cycles: 10000066 heartbeat IPC: 4 cumulative IPC: 4 (Simulation time: 00 hr 01 min 57 sec)
Heartbeat CPU 0 instructions: 50000002 cycles: 12500110 heartbeat IPC: 4 cumulative IPC: 4 (Simulation time: 00 hr 02 min 36 sec)
Heartbeat CPU 0 instructions: 60000000 cycles: 15000213 heartbeat IPC: 4 cumulative IPC: 4 (Simulation time: 00 hr 03 min 15 sec)
Heartbeat CPU 0 instructions: 70000000 cycles: 17500213 heartbeat IPC: 4 cumulative IPC: 4 (Simulation time: 00 hr 03 min 38 sec)
Heartbeat CPU 0 instructions: 80000000 cycles: 20000213 heartbeat IPC: 4 cumulative IPC: 4 (Simulation time: 00 hr 03 min 59 sec)
Heartbeat CPU 0 instructions: 90000000 cycles: 22500213 heartbeat IPC: 4 cumulative IPC: 4 (Simulation time: 00 hr 04 min 20 sec)
Heartbeat CPU 0 instructions: 100000001 cycles: 25000525 heartbeat IPC: 4 cumulative IPC: 4 (Simulation time: 00 hr 04 min 42 sec)
Heartbeat CPU 0 instructions: 110000001 cycles: 27500525 heartbeat IPC: 4 cumulative IPC: 4 (Simulation time: 00 hr 05 min 04 sec)
Heartbeat CPU 0 instructions: 120000001 cycles: 30000525 heartbeat IPC: 4 cumulative IPC: 4 (Simulation time: 00 hr 05 min 25 sec)
Heartbeat CPU 0 instructions: 130000003 cycles: 32500572 heartbeat IPC: 4 cumulative IPC: 4 (Simulation time: 00 hr 05 min 46 sec)
Heartbeat CPU 0 instructions: 140000001 cycles: 35000618 heartbeat IPC: 4 cumulative IPC: 4 (Simulation time: 00 hr 06 min 08 sec)
Heartbeat CPU 0 instructions: 150000001 cycles: 37500618 heartbeat IPC: 4 cumulative IPC: 4 (Simulation time: 00 hr 06 min 33 sec)
Heartbeat CPU 0 instructions: 160000001 cycles: 40000618 heartbeat IPC: 4 cumulative IPC: 4 (Simulation time: 00 hr 06 min 54 sec)
Heartbeat CPU 0 instructions: 170000000 cycles: 42500947 heartbeat IPC: 3.999 cumulative IPC: 4 (Simulation time: 00 hr 07 min 15 sec)
Heartbeat CPU 0 instructions: 180000000 cycles: 45000947 heartbeat IPC: 4 cumulative IPC: 4 (Simulation time: 00 hr 07 min 36 sec)
Heartbeat CPU 0 instructions: 190000000 cycles: 47500947 heartbeat IPC: 4 cumulative IPC: 4 (Simulation time: 00 hr 07 min 56 sec)
Heartbeat CPU 0 instructions: 200000000 cycles: 50000977 heartbeat IPC: 4 cumulative IPC: 4 (Simulation time: 00 hr 08 min 17 sec)
Heartbeat CPU 0 instructions: 210000000 cycles: 52500977 heartbeat IPC: 4 cumulative IPC: 4 (Simulation time: 00 hr 08 min 39 sec)
Heartbeat CPU 0 instructions: 220000000 cycles: 55000977 heartbeat IPC: 4 cumulative IPC: 4 (Simulation time: 00 hr 09 min 00 sec)
Heartbeat CPU 0 instructions: 230000000 cycles: 57500977 heartbeat IPC: 4 cumulative IPC: 4 (Simulation time: 00 hr 09 min 22 sec)
Heartbeat CPU 0 instructions: 240000000 cycles: 60001136 heartbeat IPC: 4 cumulative IPC: 4 (Simulation time: 00 hr 09 min 43 sec)
Heartbeat CPU 0 instructions: 250000003 cycles: 62501315 heartbeat IPC: 4 cumulative IPC: 4 (Simulation time: 00 hr 10 min 05 sec)
Heartbeat CPU 0 instructions: 260000003 cycles: 65001315 heartbeat IPC: 4 cumulative IPC: 4 (Simulation time: 00 hr 10 min 27 sec)
Heartbeat CPU 0 instructions: 270000003 cycles: 67501315 heartbeat IPC: 4 cumulative IPC: 4 (Simulation time: 00 hr 10 min 48 sec)
Heartbeat CPU 0 instructions: 280000003 cycles: 70001315 heartbeat IPC: 4 cumulative IPC: 4 (Simulation time: 00 hr 11 min 10 sec)
Heartbeat CPU 0 instructions: 290000003 cycles: 72501453 heartbeat IPC: 4 cumulative IPC: 4 (Simulation time: 00 hr 11 min 39 sec)
Heartbeat CPU 0 instructions: 300000003 cycles: 75001453 heartbeat IPC: 4 cumulative IPC: 4 (Simulation time: 00 hr 12 min 19 sec)
Heartbeat CPU 0 instructions: 310000002 cycles: 77501645 heartbeat IPC: 4 cumulative IPC: 4 (Simulation time: 00 hr 12 min 56 sec)
Heartbeat CPU 0 instructions: 320000003 cycles: 80001893 heartbeat IPC: 4 cumulative IPC: 4 (Simulation time: 00 hr 13 min 34 sec)
Heartbeat CPU 0 instructions: 330000002 cycles: 82504524 heartbeat IPC: 3.996 cumulative IPC: 4 (Simulation time: 00 hr 14 min 15 sec)
Heartbeat CPU 0 instructions: 340000000 cycles: 85004643 heartbeat IPC: 4 cumulative IPC: 4 (Simulation time: 00 hr 14 min 54 sec)
Heartbeat CPU 0 instructions: 350000000 cycles: 87504643 heartbeat IPC: 4 cumulative IPC: 4 (Simulation time: 00 hr 15 min 31 sec)
Heartbeat CPU 0 instructions: 360000001 cycles: 90011931 heartbeat IPC: 3.988 cumulative IPC: 3.999 (Simulation time: 00 hr 16 min 07 sec)
Heartbeat CPU 0 instructions: 370000001 cycles: 92511931 heartbeat IPC: 4 cumulative IPC: 3.999 (Simulation time: 00 hr 16 min 44 sec)
Heartbeat CPU 0 instructions: 380000002 cycles: 95011944 heartbeat IPC: 4 cumulative IPC: 3.999 (Simulation time: 00 hr 17 min 21 sec)
Heartbeat CPU 0 instructions: 390000003 cycles: 97511958 heartbeat IPC: 4 cumulative IPC: 4 (Simulation time: 00 hr 17 min 59 sec)
Heartbeat CPU 0 instructions: 400000003 cycles: 100011958 heartbeat IPC: 4 cumulative IPC: 4 (Simulation time: 00 hr 18 min 37 sec)
Heartbeat CPU 0 instructions: 410000003 cycles: 102511958 heartbeat IPC: 4 cumulative IPC: 4 (Simulation time: 00 hr 19 min 15 sec)
Heartbeat CPU 0 instructions: 420000003 cycles: 105012010 heartbeat IPC: 4 cumulative IPC: 4 (Simulation time: 00 hr 19 min 53 sec)
Heartbeat CPU 0 instructions: 430000001 cycles: 107512051 heartbeat IPC: 4 cumulative IPC: 4 (Simulation time: 00 hr 20 min 31 sec)
Heartbeat CPU 0 instructions: 440000003 cycles: 110019377 heartbeat IPC: 3.988 cumulative IPC: 3.999 (Simulation time: 00 hr 21 min 09 sec)
Heartbeat CPU 0 instructions: 450000003 cycles: 112519377 heartbeat IPC: 4 cumulative IPC: 3.999 (Simulation time: 00 hr 21 min 47 sec)
Heartbeat CPU 0 instructions: 460000003 cycles: 115019377 heartbeat IPC: 4 cumulative IPC: 3.999 (Simulation time: 00 hr 22 min 25 sec)
Heartbeat CPU 0 instructions: 470000003 cycles: 117528395 heartbeat IPC: 3.986 cumulative IPC: 3.999 (Simulation time: 00 hr 23 min 04 sec)
Heartbeat CPU 0 instructions: 480000003 cycles: 120032277 heartbeat IPC: 3.994 cumulative IPC: 3.999 (Simulation time: 00 hr 23 min 43 sec)
Heartbeat CPU 0 instructions: 490000000 cycles: 122532537 heartbeat IPC: 4 cumulative IPC: 3.999 (Simulation time: 00 hr 24 min 21 sec)
Heartbeat CPU 0 instructions: 500000001 cycles: 125032685 heartbeat IPC: 4 cumulative IPC: 3.999 (Simulation time: 00 hr 25 min 00 sec)
Heartbeat CPU 0 instructions: 510000002 cycles: 127533144 heartbeat IPC: 3.999 cumulative IPC: 3.999 (Simulation time: 00 hr 25 min 38 sec)
Heartbeat CPU 0 instructions: 520000002 cycles: 130042393 heartbeat IPC: 3.985 cumulative IPC: 3.999 (Simulation time: 00 hr 26 min 19 sec)
Heartbeat CPU 0 instructions: 530000003 cycles: 132542762 heartbeat IPC: 3.999 cumulative IPC: 3.999 (Simulation time: 00 hr 27 min 01 sec)
Heartbeat CPU 0 instructions: 540000000 cycles: 135053533 heartbeat IPC: 3.983 cumulative IPC: 3.998 (Simulation time: 00 hr 27 min 40 sec)
Heartbeat CPU 0 instructions: 550000001 cycles: 137558550 heartbeat IPC: 3.992 cumulative IPC: 3.998 (Simulation time: 00 hr 28 min 20 sec)
Heartbeat CPU 0 instructions: 560000001 cycles: 140058550 heartbeat IPC: 4 cumulative IPC: 3.998 (Simulation time: 00 hr 28 min 57 sec)
Heartbeat CPU 0 instructions: 570000001 cycles: 142558550 heartbeat IPC: 4 cumulative IPC: 3.998 (Simulation time: 00 hr 29 min 35 sec)
Heartbeat CPU 0 instructions: 580000001 cycles: 145058550 heartbeat IPC: 4 cumulative IPC: 3.998 (Simulation time: 00 hr 30 min 13 sec)
Heartbeat CPU 0 instructions: 590000000 cycles: 147559347 heartbeat IPC: 3.999 cumulative IPC: 3.998 (Simulation time: 00 hr 30 min 51 sec)
Heartbeat CPU 0 instructions: 600000003 cycles: 150060107 heartbeat IPC: 3.999 cumulative IPC: 3.998 (Simulation time: 00 hr 31 min 31 sec)
Heartbeat CPU 0 instructions: 610000002 cycles: 152561210 heartbeat IPC: 3.998 cumulative IPC: 3.998 (Simulation time: 00 hr 32 min 10 sec)
Heartbeat CPU 0 instructions: 620000001 cycles: 155064872 heartbeat IPC: 3.994 cumulative IPC: 3.998 (Simulation time: 00 hr 32 min 50 sec)
Heartbeat CPU 0 instructions: 630000000 cycles: 157566285 heartbeat IPC: 3.998 cumulative IPC: 3.998 (Simulation time: 00 hr 33 min 29 sec)
Heartbeat CPU 0 instructions: 640000002 cycles: 160066431 heartbeat IPC: 4 cumulative IPC: 3.998 (Simulation time: 00 hr 34 min 08 sec)
Heartbeat CPU 0 instructions: 650000000 cycles: 162566811 heartbeat IPC: 3.999 cumulative IPC: 3.998 (Simulation time: 00 hr 34 min 48 sec)
Heartbeat CPU 0 instructions: 660000002 cycles: 165069315 heartbeat IPC: 3.996 cumulative IPC: 3.998 (Simulation time: 00 hr 35 min 27 sec)
Heartbeat CPU 0 instructions: 670000002 cycles: 167569431 heartbeat IPC: 4 cumulative IPC: 3.998 (Simulation time: 00 hr 36 min 05 sec)
Heartbeat CPU 0 instructions: 680000003 cycles: 170069619 heartbeat IPC: 4 cumulative IPC: 3.998 (Simulation time: 00 hr 36 min 45 sec)
Heartbeat CPU 0 instructions: 690000003 cycles: 172598132 heartbeat IPC: 3.955 cumulative IPC: 3.998 (Simulation time: 00 hr 37 min 25 sec)
Heartbeat CPU 0 instructions: 700000003 cycles: 175098132 heartbeat IPC: 4 cumulative IPC: 3.998 (Simulation time: 00 hr 38 min 02 sec)
Heartbeat CPU 0 instructions: 710000002 cycles: 177598340 heartbeat IPC: 4 cumulative IPC: 3.998 (Simulation time: 00 hr 38 min 40 sec)
Heartbeat CPU 0 instructions: 720000002 cycles: 180098522 heartbeat IPC: 4 cumulative IPC: 3.998 (Simulation time: 00 hr 39 min 17 sec)
Heartbeat CPU 0 instructions: 730000002 cycles: 182598522 heartbeat IPC: 4 cumulative IPC: 3.998 (Simulation time: 00 hr 39 min 55 sec)
Heartbeat CPU 0 instructions: 740000002 cycles: 185098522 heartbeat IPC: 4 cumulative IPC: 3.998 (Simulation time: 00 hr 40 min 33 sec)
Heartbeat CPU 0 instructions: 750000002 cycles: 187598966 heartbeat IPC: 3.999 cumulative IPC: 3.998 (Simulation time: 00 hr 41 min 10 sec)
Heartbeat CPU 0 instructions: 760000001 cycles: 190099364 heartbeat IPC: 3.999 cumulative IPC: 3.998 (Simulation time: 00 hr 41 min 48 sec)
Heartbeat CPU 0 instructions: 770000002 cycles: 192599491 heartbeat IPC: 4 cumulative IPC: 3.998 (Simulation time: 00 hr 42 min 25 sec)
Heartbeat CPU 0 instructions: 780000002 cycles: 195099491 heartbeat IPC: 4 cumulative IPC: 3.998 (Simulation time: 00 hr 43 min 03 sec)
Heartbeat CPU 0 instructions: 790000002 cycles: 197599868 heartbeat IPC: 3.999 cumulative IPC: 3.998 (Simulation time: 00 hr 43 min 40 sec)
Heartbeat CPU 0 instructions: 800000003 cycles: 200100174 heartbeat IPC: 4 cumulative IPC: 3.998 (Simulation time: 00 hr 44 min 18 sec)
Heartbeat CPU 0 instructions: 810000001 cycles: 202600925 heartbeat IPC: 3.999 cumulative IPC: 3.998 (Simulation time: 00 hr 44 min 55 sec)
Heartbeat CPU 0 instructions: 820000001 cycles: 205100925 heartbeat IPC: 4 cumulative IPC: 3.998 (Simulation time: 00 hr 45 min 33 sec)
Heartbeat CPU 0 instructions: 830000001 cycles: 207600925 heartbeat IPC: 4 cumulative IPC: 3.998 (Simulation time: 00 hr 46 min 11 sec)
Heartbeat CPU 0 instructions: 840000002 cycles: 210101111 heartbeat IPC: 4 cumulative IPC: 3.998 (Simulation time: 00 hr 46 min 48 sec)
Heartbeat CPU 0 instructions: 850000003 cycles: 212602588 heartbeat IPC: 3.998 cumulative IPC: 3.998 (Simulation time: 00 hr 47 min 26 sec)
Heartbeat CPU 0 instructions: 860000003 cycles: 215102588 heartbeat IPC: 4 cumulative IPC: 3.998 (Simulation time: 00 hr 48 min 04 sec)
Heartbeat CPU 0 instructions: 870000003 cycles: 217602588 heartbeat IPC: 4 cumulative IPC: 3.998 (Simulation time: 00 hr 48 min 41 sec)
Heartbeat CPU 0 instructions: 880000002 cycles: 220103439 heartbeat IPC: 3.999 cumulative IPC: 3.998 (Simulation time: 00 hr 49 min 19 sec)
Heartbeat CPU 0 instructions: 890000002 cycles: 222603439 heartbeat IPC: 4 cumulative IPC: 3.998 (Simulation time: 00 hr 49 min 56 sec)
Heartbeat CPU 0 instructions: 900000002 cycles: 225103688 heartbeat IPC: 4 cumulative IPC: 3.998 (Simulation time: 00 hr 50 min 34 sec)
Heartbeat CPU 0 instructions: 910000000 cycles: 227604082 heartbeat IPC: 3.999 cumulative IPC: 3.998 (Simulation time: 00 hr 51 min 11 sec)
Heartbeat CPU 0 instructions: 920000001 cycles: 230104480 heartbeat IPC: 3.999 cumulative IPC: 3.998 (Simulation time: 00 hr 51 min 49 sec)
Heartbeat CPU 0 instructions: 930000003 cycles: 232604734 heartbeat IPC: 4 cumulative IPC: 3.998 (Simulation time: 00 hr 52 min 27 sec)
Heartbeat CPU 0 instructions: 940000003 cycles: 235104734 heartbeat IPC: 4 cumulative IPC: 3.998 (Simulation time: 00 hr 53 min 05 sec)
Heartbeat CPU 0 instructions: 950000003 cycles: 237605080 heartbeat IPC: 3.999 cumulative IPC: 3.998 (Simulation time: 00 hr 53 min 42 sec)
Heartbeat CPU 0 instructions: 960000000 cycles: 240105854 heartbeat IPC: 3.999 cumulative IPC: 3.998 (Simulation time: 00 hr 54 min 20 sec)
Heartbeat CPU 0 instructions: 970000003 cycles: 242605907 heartbeat IPC: 4 cumulative IPC: 3.998 (Simulation time: 00 hr 54 min 57 sec)
Heartbeat CPU 0 instructions: 980000002 cycles: 245105911 heartbeat IPC: 4 cumulative IPC: 3.998 (Simulation time: 00 hr 55 min 35 sec)
Heartbeat CPU 0 instructions: 990000003 cycles: 247607434 heartbeat IPC: 3.998 cumulative IPC: 3.998 (Simulation time: 00 hr 56 min 13 sec)
Heartbeat CPU 0 instructions: 1000000003 cycles: 250107434 heartbeat IPC: 4 cumulative IPC: 3.998 (Simulation time: 00 hr 56 min 51 sec)
Warmup finished CPU 0 instructions: 1000000003 cycles: 250107435 cumulative IPC: 3.998 (Simulation time: 00 hr 56 min 51 sec)
Warmup complete CPU 0 instructions: 1000000003 cycles: 250107435 cumulative IPC: 3.998 (Simulation time: 00 hr 56 min 51 sec)
Heartbeat CPU 0 instructions: 1010000001 cycles: 253067186 heartbeat IPC: 3.379 cumulative IPC: 3.379 (Simulation time: 00 hr 57 min 36 sec)
Heartbeat CPU 0 instructions: 1020000003 cycles: 255955363 heartbeat IPC: 3.462 cumulative IPC: 3.42 (Simulation time: 00 hr 58 min 20 sec)
Heartbeat CPU 0 instructions: 1030000000 cycles: 258738787 heartbeat IPC: 3.593 cumulative IPC: 3.476 (Simulation time: 00 hr 59 min 01 sec)
Heartbeat CPU 0 instructions: 1040000000 cycles: 261573689 heartbeat IPC: 3.527 cumulative IPC: 3.488 (Simulation time: 00 hr 59 min 27 sec)
Heartbeat CPU 0 instructions: 1050000000 cycles: 264458841 heartbeat IPC: 3.466 cumulative IPC: 3.484 (Simulation time: 00 hr 59 min 53 sec)
Heartbeat CPU 0 instructions: 1060000001 cycles: 267420391 heartbeat IPC: 3.377 cumulative IPC: 3.466 (Simulation time: 01 hr 00 min 19 sec)
Heartbeat CPU 0 instructions: 1070000002 cycles: 270465005 heartbeat IPC: 3.284 cumulative IPC: 3.439 (Simulation time: 01 hr 00 min 45 sec)
Heartbeat CPU 0 instructions: 1080000003 cycles: 273388364 heartbeat IPC: 3.421 cumulative IPC: 3.436 (Simulation time: 01 hr 01 min 11 sec)
Heartbeat CPU 0 instructions: 1090000000 cycles: 276300219 heartbeat IPC: 3.434 cumulative IPC: 3.436 (Simulation time: 01 hr 01 min 38 sec)
Heartbeat CPU 0 instructions: 1100000000 cycles: 279058559 heartbeat IPC: 3.625 cumulative IPC: 3.454 (Simulation time: 01 hr 02 min 04 sec)
Heartbeat CPU 0 instructions: 1110000004 cycles: 282000770 heartbeat IPC: 3.399 cumulative IPC: 3.449 (Simulation time: 01 hr 02 min 30 sec)
Heartbeat CPU 0 instructions: 1120000000 cycles: 284881126 heartbeat IPC: 3.472 cumulative IPC: 3.451 (Simulation time: 01 hr 02 min 55 sec)
Heartbeat CPU 0 instructions: 1130000002 cycles: 287512771 heartbeat IPC: 3.8 cumulative IPC: 3.475 (Simulation time: 01 hr 03 min 21 sec)
Heartbeat CPU 0 instructions: 1140000002 cycles: 290546865 heartbeat IPC: 3.296 cumulative IPC: 3.462 (Simulation time: 01 hr 03 min 47 sec)
Heartbeat CPU 0 instructions: 1150000001 cycles: 293470651 heartbeat IPC: 3.42 cumulative IPC: 3.459 (Simulation time: 01 hr 04 min 13 sec)
Heartbeat CPU 0 instructions: 1160000000 cycles: 296369160 heartbeat IPC: 3.45 cumulative IPC: 3.459 (Simulation time: 01 hr 04 min 38 sec)
Heartbeat CPU 0 instructions: 1170000004 cycles: 299157247 heartbeat IPC: 3.587 cumulative IPC: 3.466 (Simulation time: 01 hr 05 min 02 sec)
Heartbeat CPU 0 instructions: 1180000004 cycles: 301973653 heartbeat IPC: 3.551 cumulative IPC: 3.47 (Simulation time: 01 hr 05 min 26 sec)
Heartbeat CPU 0 instructions: 1190000004 cycles: 304925626 heartbeat IPC: 3.388 cumulative IPC: 3.466 (Simulation time: 01 hr 05 min 51 sec)
Heartbeat CPU 0 instructions: 1200000000 cycles: 307674364 heartbeat IPC: 3.638 cumulative IPC: 3.474 (Simulation time: 01 hr 06 min 16 sec)
Heartbeat CPU 0 instructions: 1210000003 cycles: 310583240 heartbeat IPC: 3.438 cumulative IPC: 3.472 (Simulation time: 01 hr 06 min 40 sec)
Heartbeat CPU 0 instructions: 1220000001 cycles: 314570720 heartbeat IPC: 2.508 cumulative IPC: 3.413 (Simulation time: 01 hr 07 min 09 sec)
Heartbeat CPU 0 instructions: 1230000001 cycles: 319028675 heartbeat IPC: 2.243 cumulative IPC: 3.337 (Simulation time: 01 hr 07 min 40 sec)
Heartbeat CPU 0 instructions: 1240000000 cycles: 324744841 heartbeat IPC: 1.749 cumulative IPC: 3.216 (Simulation time: 01 hr 08 min 15 sec)
Heartbeat CPU 0 instructions: 1250000002 cycles: 330718010 heartbeat IPC: 1.674 cumulative IPC: 3.101 (Simulation time: 01 hr 08 min 52 sec)
Heartbeat CPU 0 instructions: 1260000002 cycles: 333843239 heartbeat IPC: 3.2 cumulative IPC: 3.105 (Simulation time: 01 hr 09 min 17 sec)
Heartbeat CPU 0 instructions: 1270000003 cycles: 336816292 heartbeat IPC: 3.364 cumulative IPC: 3.114 (Simulation time: 01 hr 09 min 42 sec)
Heartbeat CPU 0 instructions: 1280000001 cycles: 339918303 heartbeat IPC: 3.224 cumulative IPC: 3.118 (Simulation time: 01 hr 10 min 08 sec)
Heartbeat CPU 0 instructions: 1290000002 cycles: 343018381 heartbeat IPC: 3.226 cumulative IPC: 3.121 (Simulation time: 01 hr 10 min 34 sec)
Heartbeat CPU 0 instructions: 1300000001 cycles: 346118151 heartbeat IPC: 3.226 cumulative IPC: 3.125 (Simulation time: 01 hr 11 min 00 sec)
Heartbeat CPU 0 instructions: 1310000000 cycles: 349283522 heartbeat IPC: 3.159 cumulative IPC: 3.126 (Simulation time: 01 hr 11 min 26 sec)
Heartbeat CPU 0 instructions: 1320000003 cycles: 355302390 heartbeat IPC: 1.661 cumulative IPC: 3.042 (Simulation time: 01 hr 12 min 03 sec)
Heartbeat CPU 0 instructions: 1330000002 cycles: 361697312 heartbeat IPC: 1.564 cumulative IPC: 2.957 (Simulation time: 01 hr 12 min 40 sec)
Heartbeat CPU 0 instructions: 1340000002 cycles: 367175896 heartbeat IPC: 1.825 cumulative IPC: 2.904 (Simulation time: 01 hr 13 min 15 sec)
Heartbeat CPU 0 instructions: 1350000001 cycles: 370386387 heartbeat IPC: 3.115 cumulative IPC: 2.91 (Simulation time: 01 hr 13 min 41 sec)
Heartbeat CPU 0 instructions: 1360000001 cycles: 373630745 heartbeat IPC: 3.082 cumulative IPC: 2.914 (Simulation time: 01 hr 14 min 07 sec)
Heartbeat CPU 0 instructions: 1370000002 cycles: 376896807 heartbeat IPC: 3.062 cumulative IPC: 2.918 (Simulation time: 01 hr 14 min 34 sec)
Heartbeat CPU 0 instructions: 1380000000 cycles: 382947814 heartbeat IPC: 1.653 cumulative IPC: 2.861 (Simulation time: 01 hr 15 min 10 sec)
Heartbeat CPU 0 instructions: 1390000003 cycles: 389393158 heartbeat IPC: 1.552 cumulative IPC: 2.8 (Simulation time: 01 hr 15 min 48 sec)
Heartbeat CPU 0 instructions: 1400000001 cycles: 394198999 heartbeat IPC: 2.081 cumulative IPC: 2.776 (Simulation time: 01 hr 16 min 20 sec)
Heartbeat CPU 0 instructions: 1410000003 cycles: 397209385 heartbeat IPC: 3.322 cumulative IPC: 2.787 (Simulation time: 01 hr 16 min 45 sec)
Heartbeat CPU 0 instructions: 1420000002 cycles: 400168794 heartbeat IPC: 3.379 cumulative IPC: 2.799 (Simulation time: 01 hr 17 min 10 sec)
Heartbeat CPU 0 instructions: 1430000001 cycles: 403107201 heartbeat IPC: 3.403 cumulative IPC: 2.81 (Simulation time: 01 hr 17 min 35 sec)
Heartbeat CPU 0 instructions: 1440000002 cycles: 406012492 heartbeat IPC: 3.442 cumulative IPC: 2.822 (Simulation time: 01 hr 17 min 59 sec)
Heartbeat CPU 0 instructions: 1450000000 cycles: 408893366 heartbeat IPC: 3.471 cumulative IPC: 2.834 (Simulation time: 01 hr 18 min 24 sec)
Heartbeat CPU 0 instructions: 1460000000 cycles: 411804654 heartbeat IPC: 3.435 cumulative IPC: 2.845 (Simulation time: 01 hr 18 min 49 sec)
Heartbeat CPU 0 instructions: 1470000004 cycles: 414769343 heartbeat IPC: 3.373 cumulative IPC: 2.854 (Simulation time: 01 hr 19 min 14 sec)
Heartbeat CPU 0 instructions: 1480000002 cycles: 417722023 heartbeat IPC: 3.387 cumulative IPC: 2.864 (Simulation time: 01 hr 19 min 39 sec)
Heartbeat CPU 0 instructions: 1490000002 cycles: 420614238 heartbeat IPC: 3.458 cumulative IPC: 2.874 (Simulation time: 01 hr 20 min 02 sec)
Heartbeat CPU 0 instructions: 1500000001 cycles: 423638499 heartbeat IPC: 3.307 cumulative IPC: 2.881 (Simulation time: 01 hr 20 min 25 sec)
Simulation finished CPU 0 instructions: 500000003 cycles: 173531066 cumulative IPC: 2.881 (Simulation time: 01 hr 20 min 25 sec)
Simulation complete CPU 0 instructions: 500000003 cycles: 173531066 cumulative IPC: 2.881 (Simulation time: 01 hr 20 min 25 sec)

ChampSim completed all CPUs

=== Simulation ===
CPU 0 runs traces/600.perlbench_s-210B.champsimtrace.xz
Region of Interest Statistics

CPU 0 cumulative IPC: 2.881 instructions: 500000003 cycles: 173531066
CPU 0 Branch Prediction Accuracy: 98.06% MPKI: 2.917 Average ROB Occupancy at Mispredict: 82.89
Branch type MPKI
BRANCH_DIRECT_JUMP: 0.0578
BRANCH_INDIRECT: 0.296
BRANCH_CONDITIONAL: 2.38
BRANCH_DIRECT_CALL: 0.0136
BRANCH_INDIRECT_CALL: 0.154
BRANCH_RETURN: 0.0117

LLC TOTAL        ACCESS:     354063 HIT:     106601 MISS:     247462
LLC LOAD         ACCESS:     284540 HIT:      62755 MISS:     221785
LLC RFO          ACCESS:      16351 HIT:       4884 MISS:      11467
LLC PREFETCH     ACCESS:          0 HIT:          0 MISS:          0
LLC WRITE        ACCESS:      35939 HIT:      35784 MISS:        155
LLC TRANSLATION  ACCESS:      17233 HIT:       3178 MISS:      14055
LLC PREFETCH REQUESTED:          0 ISSUED:          0 USEFUL:          0 USELESS:          0
LLC AVERAGE MISS LATENCY: 202.1 cycles
cpu0_DTLB TOTAL        ACCESS:  115731163 HIT:  114904598 MISS:     826565
cpu0_DTLB LOAD         ACCESS:  115731163 HIT:  114904598 MISS:     826565
cpu0_DTLB RFO          ACCESS:          0 HIT:          0 MISS:          0
cpu0_DTLB PREFETCH     ACCESS:          0 HIT:          0 MISS:          0
cpu0_DTLB WRITE        ACCESS:          0 HIT:          0 MISS:          0
cpu0_DTLB TRANSLATION  ACCESS:          0 HIT:          0 MISS:          0
cpu0_DTLB PREFETCH REQUESTED:          0 ISSUED:          0 USEFUL:          0 USELESS:          0
cpu0_DTLB AVERAGE MISS LATENCY: 8.923 cycles
cpu0_ITLB TOTAL        ACCESS:    6550825 HIT:    6362352 MISS:     188473
cpu0_ITLB LOAD         ACCESS:    6550825 HIT:    6362352 MISS:     188473
cpu0_ITLB RFO          ACCESS:          0 HIT:          0 MISS:          0
cpu0_ITLB PREFETCH     ACCESS:          0 HIT:          0 MISS:          0
cpu0_ITLB WRITE        ACCESS:          0 HIT:          0 MISS:          0
cpu0_ITLB TRANSLATION  ACCESS:          0 HIT:          0 MISS:          0
cpu0_ITLB PREFETCH REQUESTED:          0 ISSUED:          0 USEFUL:          0 USELESS:          0
cpu0_ITLB AVERAGE MISS LATENCY: 2.012 cycles
cpu0_L1D TOTAL        ACCESS:  165822817 HIT:  164663934 MISS:    1158883
cpu0_L1D LOAD         ACCESS:   63127866 HIT:   62155890 MISS:     971976
cpu0_L1D RFO          ACCESS:          0 HIT:          0 MISS:          0
cpu0_L1D PREFETCH     ACCESS:          0 HIT:          0 MISS:          0
cpu0_L1D WRITE        ACCESS:  102668132 HIT:  102505782 MISS:     162350
cpu0_L1D TRANSLATION  ACCESS:      26819 HIT:       2262 MISS:      24557
cpu0_L1D PREFETCH REQUESTED:          0 ISSUED:          0 USEFUL:          0 USELESS:          0
cpu0_L1D AVERAGE MISS LATENCY: 47.72 cycles
cpu0_L1I TOTAL        ACCESS:    7327427 HIT:    6170230 MISS:    1157197
cpu0_L1I LOAD         ACCESS:    7327427 HIT:    6170230 MISS:    1157197
cpu0_L1I RFO          ACCESS:          0 HIT:          0 MISS:          0
cpu0_L1I PREFETCH     ACCESS:          0 HIT:          0 MISS:          0
cpu0_L1I WRITE        ACCESS:          0 HIT:          0 MISS:          0
cpu0_L1I TRANSLATION  ACCESS:          0 HIT:          0 MISS:          0
cpu0_L1I PREFETCH REQUESTED:          0 ISSUED:          0 USEFUL:          0 USELESS:          0
cpu0_L1I AVERAGE MISS LATENCY: 9.247 cycles
cpu0_L2C TOTAL        ACCESS:    1564834 HIT:    1246383 MISS:     318451
cpu0_L2C LOAD         ACCESS:    1387095 HIT:    1102555 MISS:     284540
cpu0_L2C RFO          ACCESS:      48941 HIT:      32590 MISS:      16351
cpu0_L2C PREFETCH     ACCESS:          0 HIT:          0 MISS:          0
cpu0_L2C WRITE        ACCESS:     104311 HIT:     103984 MISS:        327
cpu0_L2C TRANSLATION  ACCESS:      24487 HIT:       7254 MISS:      17233
cpu0_L2C PREFETCH REQUESTED:          0 ISSUED:          0 USEFUL:          0 USELESS:          0
cpu0_L2C AVERAGE MISS LATENCY: 177.8 cycles
cpu0_STLB TOTAL        ACCESS:     626700 HIT:     603212 MISS:      23488
cpu0_STLB LOAD         ACCESS:     626700 HIT:     603212 MISS:      23488
cpu0_STLB RFO          ACCESS:          0 HIT:          0 MISS:          0
cpu0_STLB PREFETCH     ACCESS:          0 HIT:          0 MISS:          0
cpu0_STLB WRITE        ACCESS:          0 HIT:          0 MISS:          0
cpu0_STLB TRANSLATION  ACCESS:          0 HIT:          0 MISS:          0
cpu0_STLB PREFETCH REQUESTED:          0 ISSUED:          0 USEFUL:          0 USELESS:          0
cpu0_STLB AVERAGE MISS LATENCY: 170.9 cycles

DRAM Statistics

Channel 0 RQ ROW_BUFFER_HIT:      57502
  ROW_BUFFER_MISS:     189798
 AVG DBUS CONGESTED CYCLE: 3.815
WQ ROW_BUFFER_HIT: Channel 0 
  ROW_BUFFER_MISS:      11073
  FULL:      14365
