WARNING: physical memory size is smaller than virtual memory size.

*** ChampSim Multicore Out-of-Order Simulator ***
Warmup Instructions: 1000000000
Simulation Instructions: 500000000
Number of CPUs: 1
Page size: 4096

Off-chip DRAM Size: 4 GiB Channels: 1 Width: 64-bit Data Race: 3200 MT/s
Heartbeat CPU 0 instructions: 10000000 cycles: 2500066 heartbeat IPC: 4 cumulative IPC: 4 (Simulation time: 00 hr 00 min 39 sec)
Heartbeat CPU 0 instructions: 20000000 cycles: 5000066 heartbeat IPC: 4 cumulative IPC: 4 (Simulation time: 00 hr 01 min 19 sec)
Heartbeat CPU 0 instructions: 30000000 cycles: 7500066 heartbeat IPC: 4 cumulative IPC: 4 (Simulation time: 00 hr 01 min 59 sec)
Heartbeat CPU 0 instructions: 40000000 cycles: 10000066 heartbeat IPC: 4 cumulative IPC: 4 (Simulation time: 00 hr 02 min 39 sec)
Heartbeat CPU 0 instructions: 50000002 cycles: 12500117 heartbeat IPC: 4 cumulative IPC: 4 (Simulation time: 00 hr 03 min 18 sec)
Heartbeat CPU 0 instructions: 60000000 cycles: 15000218 heartbeat IPC: 4 cumulative IPC: 4 (Simulation time: 00 hr 03 min 58 sec)
Heartbeat CPU 0 instructions: 70000000 cycles: 17500218 heartbeat IPC: 4 cumulative IPC: 4 (Simulation time: 00 hr 04 min 38 sec)
Heartbeat CPU 0 instructions: 80000000 cycles: 20000218 heartbeat IPC: 4 cumulative IPC: 4 (Simulation time: 00 hr 05 min 17 sec)
Heartbeat CPU 0 instructions: 90000000 cycles: 22500218 heartbeat IPC: 4 cumulative IPC: 4 (Simulation time: 00 hr 05 min 57 sec)
Heartbeat CPU 0 instructions: 100000001 cycles: 25000530 heartbeat IPC: 4 cumulative IPC: 4 (Simulation time: 00 hr 06 min 37 sec)
Heartbeat CPU 0 instructions: 110000001 cycles: 27500530 heartbeat IPC: 4 cumulative IPC: 4 (Simulation time: 00 hr 07 min 17 sec)
Heartbeat CPU 0 instructions: 120000001 cycles: 30000530 heartbeat IPC: 4 cumulative IPC: 4 (Simulation time: 00 hr 07 min 57 sec)
Heartbeat CPU 0 instructions: 130000003 cycles: 32500578 heartbeat IPC: 4 cumulative IPC: 4 (Simulation time: 00 hr 08 min 36 sec)
Heartbeat CPU 0 instructions: 140000001 cycles: 35000624 heartbeat IPC: 4 cumulative IPC: 4 (Simulation time: 00 hr 09 min 16 sec)
Heartbeat CPU 0 instructions: 150000001 cycles: 37500624 heartbeat IPC: 4 cumulative IPC: 4 (Simulation time: 00 hr 09 min 56 sec)
Heartbeat CPU 0 instructions: 160000001 cycles: 40000624 heartbeat IPC: 4 cumulative IPC: 4 (Simulation time: 00 hr 10 min 36 sec)
Heartbeat CPU 0 instructions: 170000000 cycles: 42500951 heartbeat IPC: 3.999 cumulative IPC: 4 (Simulation time: 00 hr 11 min 16 sec)
Heartbeat CPU 0 instructions: 180000000 cycles: 45000951 heartbeat IPC: 4 cumulative IPC: 4 (Simulation time: 00 hr 11 min 57 sec)
Heartbeat CPU 0 instructions: 190000000 cycles: 47500951 heartbeat IPC: 4 cumulative IPC: 4 (Simulation time: 00 hr 12 min 37 sec)
Heartbeat CPU 0 instructions: 200000000 cycles: 50000983 heartbeat IPC: 4 cumulative IPC: 4 (Simulation time: 00 hr 13 min 16 sec)
Heartbeat CPU 0 instructions: 210000000 cycles: 52500983 heartbeat IPC: 4 cumulative IPC: 4 (Simulation time: 00 hr 13 min 56 sec)
Heartbeat CPU 0 instructions: 220000000 cycles: 55000983 heartbeat IPC: 4 cumulative IPC: 4 (Simulation time: 00 hr 14 min 36 sec)
Heartbeat CPU 0 instructions: 230000000 cycles: 57500983 heartbeat IPC: 4 cumulative IPC: 4 (Simulation time: 00 hr 15 min 16 sec)
Heartbeat CPU 0 instructions: 240000000 cycles: 60001132 heartbeat IPC: 4 cumulative IPC: 4 (Simulation time: 00 hr 15 min 55 sec)
Heartbeat CPU 0 instructions: 250000003 cycles: 62501312 heartbeat IPC: 4 cumulative IPC: 4 (Simulation time: 00 hr 16 min 36 sec)
Heartbeat CPU 0 instructions: 260000003 cycles: 65001312 heartbeat IPC: 4 cumulative IPC: 4 (Simulation time: 00 hr 17 min 15 sec)
Heartbeat CPU 0 instructions: 270000003 cycles: 67501312 heartbeat IPC: 4 cumulative IPC: 4 (Simulation time: 00 hr 17 min 55 sec)
Heartbeat CPU 0 instructions: 280000003 cycles: 70001312 heartbeat IPC: 4 cumulative IPC: 4 (Simulation time: 00 hr 18 min 34 sec)
Heartbeat CPU 0 instructions: 290000003 cycles: 72501456 heartbeat IPC: 4 cumulative IPC: 4 (Simulation time: 00 hr 19 min 14 sec)
Heartbeat CPU 0 instructions: 300000003 cycles: 75001456 heartbeat IPC: 4 cumulative IPC: 4 (Simulation time: 00 hr 19 min 54 sec)
Heartbeat CPU 0 instructions: 310000002 cycles: 77501652 heartbeat IPC: 4 cumulative IPC: 4 (Simulation time: 00 hr 20 min 33 sec)
Heartbeat CPU 0 instructions: 320000003 cycles: 80001897 heartbeat IPC: 4 cumulative IPC: 4 (Simulation time: 00 hr 21 min 13 sec)
Heartbeat CPU 0 instructions: 330000002 cycles: 82504528 heartbeat IPC: 3.996 cumulative IPC: 4 (Simulation time: 00 hr 21 min 53 sec)
Heartbeat CPU 0 instructions: 340000000 cycles: 85004647 heartbeat IPC: 4 cumulative IPC: 4 (Simulation time: 00 hr 22 min 33 sec)
Heartbeat CPU 0 instructions: 350000000 cycles: 87504647 heartbeat IPC: 4 cumulative IPC: 4 (Simulation time: 00 hr 23 min 12 sec)
Heartbeat CPU 0 instructions: 360000001 cycles: 90011952 heartbeat IPC: 3.988 cumulative IPC: 3.999 (Simulation time: 00 hr 23 min 52 sec)
Heartbeat CPU 0 instructions: 370000001 cycles: 92511952 heartbeat IPC: 4 cumulative IPC: 3.999 (Simulation time: 00 hr 24 min 32 sec)
Heartbeat CPU 0 instructions: 380000002 cycles: 95011965 heartbeat IPC: 4 cumulative IPC: 3.999 (Simulation time: 00 hr 25 min 11 sec)
Heartbeat CPU 0 instructions: 390000003 cycles: 97511975 heartbeat IPC: 4 cumulative IPC: 4 (Simulation time: 00 hr 25 min 51 sec)
Heartbeat CPU 0 instructions: 400000003 cycles: 100011975 heartbeat IPC: 4 cumulative IPC: 4 (Simulation time: 00 hr 26 min 31 sec)
Heartbeat CPU 0 instructions: 410000003 cycles: 102511975 heartbeat IPC: 4 cumulative IPC: 4 (Simulation time: 00 hr 27 min 10 sec)
Heartbeat CPU 0 instructions: 420000003 cycles: 105012027 heartbeat IPC: 4 cumulative IPC: 4 (Simulation time: 00 hr 27 min 50 sec)
Heartbeat CPU 0 instructions: 430000001 cycles: 107512067 heartbeat IPC: 4 cumulative IPC: 4 (Simulation time: 00 hr 28 min 29 sec)
Heartbeat CPU 0 instructions: 440000003 cycles: 110019404 heartbeat IPC: 3.988 cumulative IPC: 3.999 (Simulation time: 00 hr 29 min 09 sec)
Heartbeat CPU 0 instructions: 450000003 cycles: 112519404 heartbeat IPC: 4 cumulative IPC: 3.999 (Simulation time: 00 hr 29 min 49 sec)
Heartbeat CPU 0 instructions: 460000003 cycles: 115019404 heartbeat IPC: 4 cumulative IPC: 3.999 (Simulation time: 00 hr 30 min 29 sec)
Heartbeat CPU 0 instructions: 470000003 cycles: 117528584 heartbeat IPC: 3.985 cumulative IPC: 3.999 (Simulation time: 00 hr 31 min 09 sec)
Heartbeat CPU 0 instructions: 480000003 cycles: 120032440 heartbeat IPC: 3.994 cumulative IPC: 3.999 (Simulation time: 00 hr 31 min 50 sec)
Heartbeat CPU 0 instructions: 490000000 cycles: 122532698 heartbeat IPC: 4 cumulative IPC: 3.999 (Simulation time: 00 hr 32 min 30 sec)
Heartbeat CPU 0 instructions: 500000001 cycles: 125032846 heartbeat IPC: 4 cumulative IPC: 3.999 (Simulation time: 00 hr 33 min 10 sec)
Heartbeat CPU 0 instructions: 510000002 cycles: 127533294 heartbeat IPC: 3.999 cumulative IPC: 3.999 (Simulation time: 00 hr 33 min 52 sec)
Heartbeat CPU 0 instructions: 520000002 cycles: 130042531 heartbeat IPC: 3.985 cumulative IPC: 3.999 (Simulation time: 00 hr 34 min 35 sec)
Heartbeat CPU 0 instructions: 530000003 cycles: 132542900 heartbeat IPC: 3.999 cumulative IPC: 3.999 (Simulation time: 00 hr 35 min 18 sec)
Heartbeat CPU 0 instructions: 540000000 cycles: 135053583 heartbeat IPC: 3.983 cumulative IPC: 3.998 (Simulation time: 00 hr 36 min 00 sec)
Heartbeat CPU 0 instructions: 550000001 cycles: 137558431 heartbeat IPC: 3.992 cumulative IPC: 3.998 (Simulation time: 00 hr 36 min 41 sec)
Heartbeat CPU 0 instructions: 560000001 cycles: 140058431 heartbeat IPC: 4 cumulative IPC: 3.998 (Simulation time: 00 hr 37 min 21 sec)
Heartbeat CPU 0 instructions: 570000001 cycles: 142558431 heartbeat IPC: 4 cumulative IPC: 3.998 (Simulation time: 00 hr 38 min 01 sec)
Heartbeat CPU 0 instructions: 580000001 cycles: 145058431 heartbeat IPC: 4 cumulative IPC: 3.998 (Simulation time: 00 hr 38 min 41 sec)
Heartbeat CPU 0 instructions: 590000000 cycles: 147559219 heartbeat IPC: 3.999 cumulative IPC: 3.998 (Simulation time: 00 hr 39 min 21 sec)
Heartbeat CPU 0 instructions: 600000003 cycles: 150059949 heartbeat IPC: 3.999 cumulative IPC: 3.998 (Simulation time: 00 hr 40 min 03 sec)
Heartbeat CPU 0 instructions: 610000002 cycles: 152560964 heartbeat IPC: 3.998 cumulative IPC: 3.998 (Simulation time: 00 hr 40 min 45 sec)
Heartbeat CPU 0 instructions: 620000001 cycles: 155064537 heartbeat IPC: 3.994 cumulative IPC: 3.998 (Simulation time: 00 hr 41 min 27 sec)
Heartbeat CPU 0 instructions: 630000000 cycles: 157565934 heartbeat IPC: 3.998 cumulative IPC: 3.998 (Simulation time: 00 hr 42 min 07 sec)
Heartbeat CPU 0 instructions: 640000002 cycles: 160066078 heartbeat IPC: 4 cumulative IPC: 3.998 (Simulation time: 00 hr 42 min 49 sec)
Heartbeat CPU 0 instructions: 650000000 cycles: 162566434 heartbeat IPC: 3.999 cumulative IPC: 3.998 (Simulation time: 00 hr 43 min 31 sec)
Heartbeat CPU 0 instructions: 660000001 cycles: 165068863 heartbeat IPC: 3.996 cumulative IPC: 3.998 (Simulation time: 00 hr 44 min 13 sec)
Heartbeat CPU 0 instructions: 670000002 cycles: 167568972 heartbeat IPC: 4 cumulative IPC: 3.998 (Simulation time: 00 hr 44 min 54 sec)
Heartbeat CPU 0 instructions: 680000003 cycles: 170069144 heartbeat IPC: 4 cumulative IPC: 3.998 (Simulation time: 00 hr 45 min 36 sec)
Heartbeat CPU 0 instructions: 690000000 cycles: 172597436 heartbeat IPC: 3.955 cumulative IPC: 3.998 (Simulation time: 00 hr 46 min 18 sec)
Heartbeat CPU 0 instructions: 700000000 cycles: 175097436 heartbeat IPC: 4 cumulative IPC: 3.998 (Simulation time: 00 hr 46 min 57 sec)
Heartbeat CPU 0 instructions: 710000002 cycles: 177597638 heartbeat IPC: 4 cumulative IPC: 3.998 (Simulation time: 00 hr 47 min 37 sec)
Heartbeat CPU 0 instructions: 720000002 cycles: 180097813 heartbeat IPC: 4 cumulative IPC: 3.998 (Simulation time: 00 hr 48 min 17 sec)
Heartbeat CPU 0 instructions: 730000002 cycles: 182597813 heartbeat IPC: 4 cumulative IPC: 3.998 (Simulation time: 00 hr 48 min 56 sec)
Heartbeat CPU 0 instructions: 740000002 cycles: 185097813 heartbeat IPC: 4 cumulative IPC: 3.998 (Simulation time: 00 hr 49 min 36 sec)
Heartbeat CPU 0 instructions: 750000002 cycles: 187598237 heartbeat IPC: 3.999 cumulative IPC: 3.998 (Simulation time: 00 hr 50 min 16 sec)
Heartbeat CPU 0 instructions: 760000001 cycles: 190098630 heartbeat IPC: 3.999 cumulative IPC: 3.998 (Simulation time: 00 hr 50 min 55 sec)
Heartbeat CPU 0 instructions: 770000002 cycles: 192598758 heartbeat IPC: 4 cumulative IPC: 3.998 (Simulation time: 00 hr 51 min 36 sec)
Heartbeat CPU 0 instructions: 780000002 cycles: 195098758 heartbeat IPC: 4 cumulative IPC: 3.998 (Simulation time: 00 hr 52 min 18 sec)
Heartbeat CPU 0 instructions: 790000002 cycles: 197599126 heartbeat IPC: 3.999 cumulative IPC: 3.998 (Simulation time: 00 hr 52 min 59 sec)
Heartbeat CPU 0 instructions: 800000003 cycles: 200099424 heartbeat IPC: 4 cumulative IPC: 3.998 (Simulation time: 00 hr 53 min 39 sec)
Heartbeat CPU 0 instructions: 810000001 cycles: 202600171 heartbeat IPC: 3.999 cumulative IPC: 3.998 (Simulation time: 00 hr 54 min 19 sec)
Heartbeat CPU 0 instructions: 820000001 cycles: 205100171 heartbeat IPC: 4 cumulative IPC: 3.998 (Simulation time: 00 hr 54 min 58 sec)
Heartbeat CPU 0 instructions: 830000001 cycles: 207600171 heartbeat IPC: 4 cumulative IPC: 3.998 (Simulation time: 00 hr 55 min 38 sec)
Heartbeat CPU 0 instructions: 840000002 cycles: 210100350 heartbeat IPC: 4 cumulative IPC: 3.998 (Simulation time: 00 hr 56 min 18 sec)
Heartbeat CPU 0 instructions: 850000003 cycles: 212601822 heartbeat IPC: 3.998 cumulative IPC: 3.998 (Simulation time: 00 hr 56 min 58 sec)
Heartbeat CPU 0 instructions: 860000003 cycles: 215101822 heartbeat IPC: 4 cumulative IPC: 3.998 (Simulation time: 00 hr 57 min 38 sec)
Heartbeat CPU 0 instructions: 870000003 cycles: 217601822 heartbeat IPC: 4 cumulative IPC: 3.998 (Simulation time: 00 hr 58 min 18 sec)
Heartbeat CPU 0 instructions: 880000002 cycles: 220102666 heartbeat IPC: 3.999 cumulative IPC: 3.998 (Simulation time: 00 hr 58 min 57 sec)
Heartbeat CPU 0 instructions: 890000002 cycles: 222602666 heartbeat IPC: 4 cumulative IPC: 3.998 (Simulation time: 00 hr 59 min 37 sec)
Heartbeat CPU 0 instructions: 900000002 cycles: 225102915 heartbeat IPC: 4 cumulative IPC: 3.998 (Simulation time: 01 hr 00 min 16 sec)
Heartbeat CPU 0 instructions: 910000000 cycles: 227603305 heartbeat IPC: 3.999 cumulative IPC: 3.998 (Simulation time: 01 hr 00 min 56 sec)
Heartbeat CPU 0 instructions: 920000001 cycles: 230103698 heartbeat IPC: 3.999 cumulative IPC: 3.998 (Simulation time: 01 hr 01 min 36 sec)
Heartbeat CPU 0 instructions: 930000003 cycles: 232603953 heartbeat IPC: 4 cumulative IPC: 3.998 (Simulation time: 01 hr 02 min 16 sec)
Heartbeat CPU 0 instructions: 940000003 cycles: 235103953 heartbeat IPC: 4 cumulative IPC: 3.998 (Simulation time: 01 hr 02 min 56 sec)
Heartbeat CPU 0 instructions: 950000003 cycles: 237604296 heartbeat IPC: 3.999 cumulative IPC: 3.998 (Simulation time: 01 hr 03 min 36 sec)
Heartbeat CPU 0 instructions: 960000000 cycles: 240105064 heartbeat IPC: 3.999 cumulative IPC: 3.998 (Simulation time: 01 hr 04 min 15 sec)
Heartbeat CPU 0 instructions: 970000003 cycles: 242605115 heartbeat IPC: 4 cumulative IPC: 3.998 (Simulation time: 01 hr 04 min 54 sec)
Heartbeat CPU 0 instructions: 980000002 cycles: 245105119 heartbeat IPC: 4 cumulative IPC: 3.998 (Simulation time: 01 hr 05 min 34 sec)
Heartbeat CPU 0 instructions: 990000000 cycles: 247606634 heartbeat IPC: 3.998 cumulative IPC: 3.998 (Simulation time: 01 hr 06 min 13 sec)
Heartbeat CPU 0 instructions: 1000000000 cycles: 250106634 heartbeat IPC: 4 cumulative IPC: 3.998 (Simulation time: 01 hr 06 min 54 sec)
Warmup finished CPU 0 instructions: 1000000000 cycles: 250106635 cumulative IPC: 3.998 (Simulation time: 01 hr 06 min 54 sec)
Warmup complete CPU 0 instructions: 1000000000 cycles: 250106635 cumulative IPC: 3.998 (Simulation time: 01 hr 06 min 54 sec)
Heartbeat CPU 0 instructions: 1010000001 cycles: 253079533 heartbeat IPC: 3.364 cumulative IPC: 3.364 (Simulation time: 01 hr 07 min 40 sec)
Heartbeat CPU 0 instructions: 1020000003 cycles: 255968014 heartbeat IPC: 3.462 cumulative IPC: 3.412 (Simulation time: 01 hr 08 min 26 sec)
Heartbeat CPU 0 instructions: 1030000000 cycles: 258772192 heartbeat IPC: 3.566 cumulative IPC: 3.462 (Simulation time: 01 hr 09 min 12 sec)
Heartbeat CPU 0 instructions: 1040000000 cycles: 261597169 heartbeat IPC: 3.54 cumulative IPC: 3.481 (Simulation time: 01 hr 09 min 58 sec)
Heartbeat CPU 0 instructions: 1050000000 cycles: 264468873 heartbeat IPC: 3.482 cumulative IPC: 3.481 (Simulation time: 01 hr 10 min 44 sec)
Heartbeat CPU 0 instructions: 1060000001 cycles: 267422159 heartbeat IPC: 3.386 cumulative IPC: 3.465 (Simulation time: 01 hr 11 min 30 sec)
Heartbeat CPU 0 instructions: 1070000000 cycles: 270452210 heartbeat IPC: 3.3 cumulative IPC: 3.441 (Simulation time: 01 hr 12 min 17 sec)
Heartbeat CPU 0 instructions: 1080000003 cycles: 273367300 heartbeat IPC: 3.43 cumulative IPC: 3.439 (Simulation time: 01 hr 13 min 03 sec)
Heartbeat CPU 0 instructions: 1090000000 cycles: 276299888 heartbeat IPC: 3.41 cumulative IPC: 3.436 (Simulation time: 01 hr 13 min 50 sec)
Heartbeat CPU 0 instructions: 1100000000 cycles: 279093352 heartbeat IPC: 3.58 cumulative IPC: 3.45 (Simulation time: 01 hr 14 min 36 sec)
Heartbeat CPU 0 instructions: 1110000004 cycles: 282049067 heartbeat IPC: 3.383 cumulative IPC: 3.444 (Simulation time: 01 hr 15 min 22 sec)
Heartbeat CPU 0 instructions: 1120000000 cycles: 284928190 heartbeat IPC: 3.473 cumulative IPC: 3.446 (Simulation time: 01 hr 16 min 08 sec)
Heartbeat CPU 0 instructions: 1130000002 cycles: 287554702 heartbeat IPC: 3.807 cumulative IPC: 3.471 (Simulation time: 01 hr 16 min 52 sec)
Heartbeat CPU 0 instructions: 1140000001 cycles: 290583547 heartbeat IPC: 3.302 cumulative IPC: 3.459 (Simulation time: 01 hr 17 min 39 sec)
Heartbeat CPU 0 instructions: 1150000000 cycles: 293499309 heartbeat IPC: 3.43 cumulative IPC: 3.457 (Simulation time: 01 hr 18 min 24 sec)
Heartbeat CPU 0 instructions: 1160000000 cycles: 296387869 heartbeat IPC: 3.462 cumulative IPC: 3.457 (Simulation time: 01 hr 19 min 10 sec)
Heartbeat CPU 0 instructions: 1170000004 cycles: 299166644 heartbeat IPC: 3.599 cumulative IPC: 3.465 (Simulation time: 01 hr 19 min 55 sec)
Heartbeat CPU 0 instructions: 1180000004 cycles: 302009796 heartbeat IPC: 3.517 cumulative IPC: 3.468 (Simulation time: 01 hr 20 min 40 sec)
Heartbeat CPU 0 instructions: 1190000004 cycles: 304988889 heartbeat IPC: 3.357 cumulative IPC: 3.462 (Simulation time: 01 hr 21 min 25 sec)
Heartbeat CPU 0 instructions: 1200000000 cycles: 307712614 heartbeat IPC: 3.671 cumulative IPC: 3.472 (Simulation time: 01 hr 22 min 10 sec)
Heartbeat CPU 0 instructions: 1210000003 cycles: 310615792 heartbeat IPC: 3.445 cumulative IPC: 3.471 (Simulation time: 01 hr 22 min 56 sec)
Heartbeat CPU 0 instructions: 1220000000 cycles: 314918026 heartbeat IPC: 2.324 cumulative IPC: 3.394 (Simulation time: 01 hr 23 min 51 sec)
Heartbeat CPU 0 instructions: 1230000001 cycles: 319824215 heartbeat IPC: 2.038 cumulative IPC: 3.299 (Simulation time: 01 hr 24 min 51 sec)
Heartbeat CPU 0 instructions: 1240000000 cycles: 326478146 heartbeat IPC: 1.503 cumulative IPC: 3.143 (Simulation time: 01 hr 26 min 04 sec)
Heartbeat CPU 0 instructions: 1250000002 cycles: 333156370 heartbeat IPC: 1.497 cumulative IPC: 3.01 (Simulation time: 01 hr 27 min 15 sec)
Heartbeat CPU 0 instructions: 1260000002 cycles: 336334427 heartbeat IPC: 3.147 cumulative IPC: 3.015 (Simulation time: 01 hr 28 min 03 sec)
Heartbeat CPU 0 instructions: 1270000002 cycles: 339310792 heartbeat IPC: 3.36 cumulative IPC: 3.027 (Simulation time: 01 hr 28 min 49 sec)
Heartbeat CPU 0 instructions: 1280000001 cycles: 342468018 heartbeat IPC: 3.167 cumulative IPC: 3.032 (Simulation time: 01 hr 29 min 36 sec)
Heartbeat CPU 0 instructions: 1290000002 cycles: 345588893 heartbeat IPC: 3.204 cumulative IPC: 3.037 (Simulation time: 01 hr 30 min 23 sec)
Heartbeat CPU 0 instructions: 1300000001 cycles: 348729400 heartbeat IPC: 3.184 cumulative IPC: 3.042 (Simulation time: 01 hr 31 min 10 sec)
Heartbeat CPU 0 instructions: 1310000000 cycles: 351941463 heartbeat IPC: 3.113 cumulative IPC: 3.044 (Simulation time: 01 hr 31 min 37 sec)
Heartbeat CPU 0 instructions: 1320000002 cycles: 359206466 heartbeat IPC: 1.376 cumulative IPC: 2.933 (Simulation time: 01 hr 32 min 17 sec)
Heartbeat CPU 0 instructions: 1330000002 cycles: 366897144 heartbeat IPC: 1.3 cumulative IPC: 2.826 (Simulation time: 01 hr 32 min 59 sec)
Heartbeat CPU 0 instructions: 1340000003 cycles: 372985425 heartbeat IPC: 1.642 cumulative IPC: 2.767 (Simulation time: 01 hr 33 min 35 sec)
Heartbeat CPU 0 instructions: 1350000001 cycles: 376263908 heartbeat IPC: 3.05 cumulative IPC: 2.774 (Simulation time: 01 hr 34 min 02 sec)
Heartbeat CPU 0 instructions: 1360000001 cycles: 379597703 heartbeat IPC: 3 cumulative IPC: 2.78 (Simulation time: 01 hr 34 min 29 sec)
Heartbeat CPU 0 instructions: 1370000002 cycles: 382929048 heartbeat IPC: 3.002 cumulative IPC: 2.786 (Simulation time: 01 hr 34 min 56 sec)
Heartbeat CPU 0 instructions: 1380000000 cycles: 390203672 heartbeat IPC: 1.375 cumulative IPC: 2.712 (Simulation time: 01 hr 35 min 37 sec)
Heartbeat CPU 0 instructions: 1390000003 cycles: 398024217 heartbeat IPC: 1.279 cumulative IPC: 2.637 (Simulation time: 01 hr 36 min 19 sec)
Heartbeat CPU 0 instructions: 1400000001 cycles: 403260994 heartbeat IPC: 1.91 cumulative IPC: 2.612 (Simulation time: 01 hr 36 min 53 sec)
Heartbeat CPU 0 instructions: 1410000003 cycles: 406245656 heartbeat IPC: 3.35 cumulative IPC: 2.626 (Simulation time: 01 hr 37 min 18 sec)
Heartbeat CPU 0 instructions: 1420000002 cycles: 409226445 heartbeat IPC: 3.355 cumulative IPC: 2.64 (Simulation time: 01 hr 37 min 44 sec)
Heartbeat CPU 0 instructions: 1430000000 cycles: 412145012 heartbeat IPC: 3.426 cumulative IPC: 2.654 (Simulation time: 01 hr 38 min 09 sec)
Heartbeat CPU 0 instructions: 1440000002 cycles: 415046665 heartbeat IPC: 3.446 cumulative IPC: 2.668 (Simulation time: 01 hr 38 min 35 sec)
Heartbeat CPU 0 instructions: 1450000000 cycles: 417949662 heartbeat IPC: 3.445 cumulative IPC: 2.681 (Simulation time: 01 hr 39 min 00 sec)
Heartbeat CPU 0 instructions: 1460000000 cycles: 420904593 heartbeat IPC: 3.384 cumulative IPC: 2.693 (Simulation time: 01 hr 39 min 26 sec)
Heartbeat CPU 0 instructions: 1470000001 cycles: 423884054 heartbeat IPC: 3.356 cumulative IPC: 2.705 (Simulation time: 01 hr 39 min 52 sec)
Heartbeat CPU 0 instructions: 1480000002 cycles: 426852596 heartbeat IPC: 3.369 cumulative IPC: 2.716 (Simulation time: 01 hr 40 min 18 sec)
Heartbeat CPU 0 instructions: 1490000002 cycles: 429767732 heartbeat IPC: 3.43 cumulative IPC: 2.727 (Simulation time: 01 hr 40 min 42 sec)
Heartbeat CPU 0 instructions: 1500000001 cycles: 432816325 heartbeat IPC: 3.28 cumulative IPC: 2.737 (Simulation time: 01 hr 41 min 07 sec)
Simulation finished CPU 0 instructions: 500000001 cycles: 182709691 cumulative IPC: 2.737 (Simulation time: 01 hr 41 min 07 sec)
Simulation complete CPU 0 instructions: 500000001 cycles: 182709691 cumulative IPC: 2.737 (Simulation time: 01 hr 41 min 07 sec)

ChampSim completed all CPUs

=== Simulation ===
CPU 0 runs traces/600.perlbench_s-210B.champsimtrace.xz
Region of Interest Statistics

CPU 0 cumulative IPC: 2.737 instructions: 500000001 cycles: 182709691
CPU 0 Branch Prediction Accuracy: 97.56% MPKI: 3.664 Average ROB Occupancy at Mispredict: 67.17
Branch type MPKI
BRANCH_DIRECT_JUMP: 0.0578
BRANCH_INDIRECT: 0.296
BRANCH_CONDITIONAL: 3.13
BRANCH_DIRECT_CALL: 0.0136
BRANCH_INDIRECT_CALL: 0.154
BRANCH_RETURN: 0.0117

LLC TOTAL        ACCESS:     354087 HIT:     106621 MISS:     247466
LLC LOAD         ACCESS:     285064 HIT:      63247 MISS:     221817
LLC RFO          ACCESS:      16387 HIT:       4928 MISS:      11459
LLC PREFETCH     ACCESS:          0 HIT:          0 MISS:          0
LLC WRITE        ACCESS:      35457 HIT:      35312 MISS:        145
LLC TRANSLATION  ACCESS:      17179 HIT:       3134 MISS:      14045
LLC PREFETCH REQUESTED:          0 ISSUED:          0 USEFUL:          0 USELESS:          0
LLC AVERAGE MISS LATENCY: 196.2 cycles
cpu0_DTLB TOTAL        ACCESS:  116278027 HIT:  115467744 MISS:     810283
cpu0_DTLB LOAD         ACCESS:  116278027 HIT:  115467744 MISS:     810283
cpu0_DTLB RFO          ACCESS:          0 HIT:          0 MISS:          0
cpu0_DTLB PREFETCH     ACCESS:          0 HIT:          0 MISS:          0
cpu0_DTLB WRITE        ACCESS:          0 HIT:          0 MISS:          0
cpu0_DTLB TRANSLATION  ACCESS:          0 HIT:          0 MISS:          0
cpu0_DTLB PREFETCH REQUESTED:          0 ISSUED:          0 USEFUL:          0 USELESS:          0
cpu0_DTLB AVERAGE MISS LATENCY: 9.014 cycles
cpu0_ITLB TOTAL        ACCESS:    6546084 HIT:    6374096 MISS:     171988
cpu0_ITLB LOAD         ACCESS:    6546084 HIT:    6374096 MISS:     171988
cpu0_ITLB RFO          ACCESS:          0 HIT:          0 MISS:          0
cpu0_ITLB PREFETCH     ACCESS:          0 HIT:          0 MISS:          0
cpu0_ITLB WRITE        ACCESS:          0 HIT:          0 MISS:          0
cpu0_ITLB TRANSLATION  ACCESS:          0 HIT:          0 MISS:          0
cpu0_ITLB PREFETCH REQUESTED:          0 ISSUED:          0 USEFUL:          0 USELESS:          0
cpu0_ITLB AVERAGE MISS LATENCY: 2.357 cycles
cpu0_L1D TOTAL        ACCESS:  166599736 HIT:  165481220 MISS:    1118516
cpu0_L1D LOAD         ACCESS:   63906306 HIT:   62969155 MISS:     937151
cpu0_L1D RFO          ACCESS:          0 HIT:          0 MISS:          0
cpu0_L1D PREFETCH     ACCESS:          0 HIT:          0 MISS:          0
cpu0_L1D WRITE        ACCESS:  102666626 HIT:  102509808 MISS:     156818
cpu0_L1D TRANSLATION  ACCESS:      26804 HIT:       2257 MISS:      24547
cpu0_L1D PREFETCH REQUESTED:          0 ISSUED:          0 USEFUL:          0 USELESS:          0
cpu0_L1D AVERAGE MISS LATENCY: 48.71 cycles
cpu0_L1I TOTAL        ACCESS:    7310316 HIT:    6197988 MISS:    1112328
cpu0_L1I LOAD         ACCESS:    7310316 HIT:    6197988 MISS:    1112328
cpu0_L1I RFO          ACCESS:          0 HIT:          0 MISS:          0
cpu0_L1I PREFETCH     ACCESS:          0 HIT:          0 MISS:          0
cpu0_L1I WRITE        ACCESS:          0 HIT:          0 MISS:          0
cpu0_L1I TRANSLATION  ACCESS:          0 HIT:          0 MISS:          0
cpu0_L1I PREFETCH REQUESTED:          0 ISSUED:          0 USEFUL:          0 USELESS:          0
cpu0_L1I AVERAGE MISS LATENCY: 9.634 cycles
cpu0_L2C TOTAL        ACCESS:    1562952 HIT:    1244001 MISS:     318951
cpu0_L2C LOAD         ACCESS:    1387371 HIT:    1102307 MISS:     285064
cpu0_L2C RFO          ACCESS:      48695 HIT:      32308 MISS:      16387
cpu0_L2C PREFETCH     ACCESS:          0 HIT:          0 MISS:          0
cpu0_L2C WRITE        ACCESS:     102406 HIT:     102085 MISS:        321
cpu0_L2C TRANSLATION  ACCESS:      24480 HIT:       7301 MISS:      17179
cpu0_L2C PREFETCH REQUESTED:          0 ISSUED:          0 USEFUL:          0 USELESS:          0
cpu0_L2C AVERAGE MISS LATENCY: 173 cycles
cpu0_STLB TOTAL        ACCESS:     626546 HIT:     603054 MISS:      23492
cpu0_STLB LOAD         ACCESS:     626546 HIT:     603054 MISS:      23492
cpu0_STLB RFO          ACCESS:          0 HIT:          0 MISS:          0
cpu0_STLB PREFETCH     ACCESS:          0 HIT:          0 MISS:          0
cpu0_STLB WRITE        ACCESS:          0 HIT:          0 MISS:          0
cpu0_STLB TRANSLATION  ACCESS:          0 HIT:          0 MISS:          0
cpu0_STLB PREFETCH REQUESTED:          0 ISSUED:          0 USEFUL:          0 USELESS:          0
cpu0_STLB AVERAGE MISS LATENCY: 162.1 cycles

DRAM Statistics

Channel 0 RQ ROW_BUFFER_HIT:      58673
  ROW_BUFFER_MISS:     188644
 AVG DBUS CONGESTED CYCLE: 3.801
WQ ROW_BUFFER_HIT: Channel 0 
  ROW_BUFFER_MISS:      11624
  FULL:      13570
