WARNING: physical memory size is smaller than virtual memory size.

*** ChampSim Multicore Out-of-Order Simulator ***
Warmup Instructions: 1000000000
Simulation Instructions: 500000000
Number of CPUs: 1
Page size: 4096

Off-chip DRAM Size: 4 GiB Channels: 1 Width: 64-bit Data Race: 3200 MT/s
Heartbeat CPU 0 instructions: 10000000 cycles: 2500066 heartbeat IPC: 4 cumulative IPC: 4 (Simulation time: 00 hr 00 min 27 sec)
Heartbeat CPU 0 instructions: 20000000 cycles: 5000066 heartbeat IPC: 4 cumulative IPC: 4 (Simulation time: 00 hr 01 min 04 sec)
Heartbeat CPU 0 instructions: 30000000 cycles: 7500066 heartbeat IPC: 4 cumulative IPC: 4 (Simulation time: 00 hr 01 min 42 sec)
Heartbeat CPU 0 instructions: 40000000 cycles: 10000066 heartbeat IPC: 4 cumulative IPC: 4 (Simulation time: 00 hr 02 min 18 sec)
Heartbeat CPU 0 instructions: 50000002 cycles: 12500113 heartbeat IPC: 4 cumulative IPC: 4 (Simulation time: 00 hr 02 min 51 sec)
Heartbeat CPU 0 instructions: 60000000 cycles: 15000216 heartbeat IPC: 4 cumulative IPC: 4 (Simulation time: 00 hr 03 min 13 sec)
Heartbeat CPU 0 instructions: 70000000 cycles: 17500216 heartbeat IPC: 4 cumulative IPC: 4 (Simulation time: 00 hr 03 min 33 sec)
Heartbeat CPU 0 instructions: 80000000 cycles: 20000216 heartbeat IPC: 4 cumulative IPC: 4 (Simulation time: 00 hr 03 min 53 sec)
Heartbeat CPU 0 instructions: 90000000 cycles: 22500216 heartbeat IPC: 4 cumulative IPC: 4 (Simulation time: 00 hr 04 min 13 sec)
Heartbeat CPU 0 instructions: 100000001 cycles: 25000524 heartbeat IPC: 4 cumulative IPC: 4 (Simulation time: 00 hr 04 min 33 sec)
Heartbeat CPU 0 instructions: 110000001 cycles: 27500524 heartbeat IPC: 4 cumulative IPC: 4 (Simulation time: 00 hr 04 min 53 sec)
Heartbeat CPU 0 instructions: 120000001 cycles: 30000524 heartbeat IPC: 4 cumulative IPC: 4 (Simulation time: 00 hr 05 min 13 sec)
Heartbeat CPU 0 instructions: 130000003 cycles: 32500571 heartbeat IPC: 4 cumulative IPC: 4 (Simulation time: 00 hr 05 min 33 sec)
Heartbeat CPU 0 instructions: 140000001 cycles: 35000616 heartbeat IPC: 4 cumulative IPC: 4 (Simulation time: 00 hr 05 min 54 sec)
Heartbeat CPU 0 instructions: 150000001 cycles: 37500616 heartbeat IPC: 4 cumulative IPC: 4 (Simulation time: 00 hr 06 min 14 sec)
Heartbeat CPU 0 instructions: 160000001 cycles: 40000616 heartbeat IPC: 4 cumulative IPC: 4 (Simulation time: 00 hr 06 min 34 sec)
Heartbeat CPU 0 instructions: 170000000 cycles: 42500951 heartbeat IPC: 3.999 cumulative IPC: 4 (Simulation time: 00 hr 06 min 54 sec)
Heartbeat CPU 0 instructions: 180000000 cycles: 45000951 heartbeat IPC: 4 cumulative IPC: 4 (Simulation time: 00 hr 07 min 15 sec)
Heartbeat CPU 0 instructions: 190000000 cycles: 47500951 heartbeat IPC: 4 cumulative IPC: 4 (Simulation time: 00 hr 07 min 35 sec)
Heartbeat CPU 0 instructions: 200000000 cycles: 50000986 heartbeat IPC: 4 cumulative IPC: 4 (Simulation time: 00 hr 07 min 55 sec)
Heartbeat CPU 0 instructions: 210000000 cycles: 52500986 heartbeat IPC: 4 cumulative IPC: 4 (Simulation time: 00 hr 08 min 15 sec)
Heartbeat CPU 0 instructions: 220000000 cycles: 55000986 heartbeat IPC: 4 cumulative IPC: 4 (Simulation time: 00 hr 08 min 36 sec)
Heartbeat CPU 0 instructions: 230000000 cycles: 57500986 heartbeat IPC: 4 cumulative IPC: 4 (Simulation time: 00 hr 08 min 56 sec)
Heartbeat CPU 0 instructions: 240000000 cycles: 60001144 heartbeat IPC: 4 cumulative IPC: 4 (Simulation time: 00 hr 09 min 16 sec)
Heartbeat CPU 0 instructions: 250000003 cycles: 62501323 heartbeat IPC: 4 cumulative IPC: 4 (Simulation time: 00 hr 09 min 43 sec)
Heartbeat CPU 0 instructions: 260000003 cycles: 65001323 heartbeat IPC: 4 cumulative IPC: 4 (Simulation time: 00 hr 10 min 05 sec)
Heartbeat CPU 0 instructions: 270000003 cycles: 67501323 heartbeat IPC: 4 cumulative IPC: 4 (Simulation time: 00 hr 10 min 25 sec)
Heartbeat CPU 0 instructions: 280000003 cycles: 70001323 heartbeat IPC: 4 cumulative IPC: 4 (Simulation time: 00 hr 10 min 45 sec)
Heartbeat CPU 0 instructions: 290000003 cycles: 72501464 heartbeat IPC: 4 cumulative IPC: 4 (Simulation time: 00 hr 11 min 05 sec)
Heartbeat CPU 0 instructions: 300000003 cycles: 75001464 heartbeat IPC: 4 cumulative IPC: 4 (Simulation time: 00 hr 11 min 25 sec)
Heartbeat CPU 0 instructions: 310000002 cycles: 77501659 heartbeat IPC: 4 cumulative IPC: 4 (Simulation time: 00 hr 11 min 44 sec)
Heartbeat CPU 0 instructions: 320000003 cycles: 80001907 heartbeat IPC: 4 cumulative IPC: 4 (Simulation time: 00 hr 12 min 04 sec)
Heartbeat CPU 0 instructions: 330000002 cycles: 82504538 heartbeat IPC: 3.996 cumulative IPC: 4 (Simulation time: 00 hr 12 min 25 sec)
Heartbeat CPU 0 instructions: 340000000 cycles: 85004657 heartbeat IPC: 4 cumulative IPC: 4 (Simulation time: 00 hr 12 min 45 sec)
Heartbeat CPU 0 instructions: 350000000 cycles: 87504657 heartbeat IPC: 4 cumulative IPC: 4 (Simulation time: 00 hr 13 min 04 sec)
Heartbeat CPU 0 instructions: 360000001 cycles: 90011949 heartbeat IPC: 3.988 cumulative IPC: 3.999 (Simulation time: 00 hr 13 min 24 sec)
Heartbeat CPU 0 instructions: 370000001 cycles: 92511949 heartbeat IPC: 4 cumulative IPC: 3.999 (Simulation time: 00 hr 13 min 44 sec)
Heartbeat CPU 0 instructions: 380000002 cycles: 95011962 heartbeat IPC: 4 cumulative IPC: 3.999 (Simulation time: 00 hr 14 min 04 sec)
Heartbeat CPU 0 instructions: 390000003 cycles: 97511976 heartbeat IPC: 4 cumulative IPC: 4 (Simulation time: 00 hr 14 min 24 sec)
Heartbeat CPU 0 instructions: 400000003 cycles: 100011976 heartbeat IPC: 4 cumulative IPC: 4 (Simulation time: 00 hr 14 min 45 sec)
Heartbeat CPU 0 instructions: 410000003 cycles: 102511976 heartbeat IPC: 4 cumulative IPC: 4 (Simulation time: 00 hr 15 min 05 sec)
Heartbeat CPU 0 instructions: 420000003 cycles: 105012027 heartbeat IPC: 4 cumulative IPC: 4 (Simulation time: 00 hr 15 min 25 sec)
Heartbeat CPU 0 instructions: 430000001 cycles: 107512067 heartbeat IPC: 4 cumulative IPC: 4 (Simulation time: 00 hr 15 min 45 sec)
Heartbeat CPU 0 instructions: 440000003 cycles: 110019392 heartbeat IPC: 3.988 cumulative IPC: 3.999 (Simulation time: 00 hr 16 min 05 sec)
Heartbeat CPU 0 instructions: 450000003 cycles: 112519392 heartbeat IPC: 4 cumulative IPC: 3.999 (Simulation time: 00 hr 16 min 25 sec)
Heartbeat CPU 0 instructions: 460000003 cycles: 115019392 heartbeat IPC: 4 cumulative IPC: 3.999 (Simulation time: 00 hr 16 min 46 sec)
Heartbeat CPU 0 instructions: 470000003 cycles: 117528342 heartbeat IPC: 3.986 cumulative IPC: 3.999 (Simulation time: 00 hr 17 min 06 sec)
Heartbeat CPU 0 instructions: 480000003 cycles: 120032251 heartbeat IPC: 3.994 cumulative IPC: 3.999 (Simulation time: 00 hr 17 min 27 sec)
Heartbeat CPU 0 instructions: 490000000 cycles: 122532510 heartbeat IPC: 4 cumulative IPC: 3.999 (Simulation time: 00 hr 17 min 48 sec)
Heartbeat CPU 0 instructions: 500000001 cycles: 125032658 heartbeat IPC: 4 cumulative IPC: 3.999 (Simulation time: 00 hr 18 min 08 sec)
Heartbeat CPU 0 instructions: 510000002 cycles: 127533106 heartbeat IPC: 3.999 cumulative IPC: 3.999 (Simulation time: 00 hr 18 min 29 sec)
Heartbeat CPU 0 instructions: 520000002 cycles: 130042377 heartbeat IPC: 3.985 cumulative IPC: 3.999 (Simulation time: 00 hr 18 min 51 sec)
Heartbeat CPU 0 instructions: 530000001 cycles: 132542746 heartbeat IPC: 3.999 cumulative IPC: 3.999 (Simulation time: 00 hr 19 min 14 sec)
Heartbeat CPU 0 instructions: 540000000 cycles: 135053163 heartbeat IPC: 3.983 cumulative IPC: 3.998 (Simulation time: 00 hr 19 min 35 sec)
Heartbeat CPU 0 instructions: 550000001 cycles: 137558146 heartbeat IPC: 3.992 cumulative IPC: 3.998 (Simulation time: 00 hr 19 min 56 sec)
Heartbeat CPU 0 instructions: 560000001 cycles: 140058146 heartbeat IPC: 4 cumulative IPC: 3.998 (Simulation time: 00 hr 20 min 17 sec)
Heartbeat CPU 0 instructions: 570000001 cycles: 142558146 heartbeat IPC: 4 cumulative IPC: 3.998 (Simulation time: 00 hr 20 min 37 sec)
Heartbeat CPU 0 instructions: 580000001 cycles: 145058146 heartbeat IPC: 4 cumulative IPC: 3.998 (Simulation time: 00 hr 20 min 57 sec)
Heartbeat CPU 0 instructions: 590000000 cycles: 147558942 heartbeat IPC: 3.999 cumulative IPC: 3.998 (Simulation time: 00 hr 21 min 18 sec)
Heartbeat CPU 0 instructions: 600000003 cycles: 150059684 heartbeat IPC: 3.999 cumulative IPC: 3.998 (Simulation time: 00 hr 21 min 39 sec)
Heartbeat CPU 0 instructions: 610000002 cycles: 152560751 heartbeat IPC: 3.998 cumulative IPC: 3.998 (Simulation time: 00 hr 22 min 00 sec)
Heartbeat CPU 0 instructions: 620000002 cycles: 155064408 heartbeat IPC: 3.994 cumulative IPC: 3.998 (Simulation time: 00 hr 22 min 22 sec)
Heartbeat CPU 0 instructions: 630000000 cycles: 157565810 heartbeat IPC: 3.998 cumulative IPC: 3.998 (Simulation time: 00 hr 22 min 43 sec)
Heartbeat CPU 0 instructions: 640000000 cycles: 160065949 heartbeat IPC: 4 cumulative IPC: 3.998 (Simulation time: 00 hr 23 min 04 sec)
Heartbeat CPU 0 instructions: 650000003 cycles: 162566323 heartbeat IPC: 3.999 cumulative IPC: 3.998 (Simulation time: 00 hr 23 min 25 sec)
Heartbeat CPU 0 instructions: 660000001 cycles: 165068815 heartbeat IPC: 3.996 cumulative IPC: 3.998 (Simulation time: 00 hr 23 min 47 sec)
Heartbeat CPU 0 instructions: 670000002 cycles: 167568928 heartbeat IPC: 4 cumulative IPC: 3.998 (Simulation time: 00 hr 24 min 07 sec)
Heartbeat CPU 0 instructions: 680000003 cycles: 170069118 heartbeat IPC: 4 cumulative IPC: 3.998 (Simulation time: 00 hr 24 min 29 sec)
Heartbeat CPU 0 instructions: 690000000 cycles: 172597352 heartbeat IPC: 3.955 cumulative IPC: 3.998 (Simulation time: 00 hr 24 min 51 sec)
Heartbeat CPU 0 instructions: 700000000 cycles: 175097352 heartbeat IPC: 4 cumulative IPC: 3.998 (Simulation time: 00 hr 25 min 11 sec)
Heartbeat CPU 0 instructions: 710000002 cycles: 177597557 heartbeat IPC: 4 cumulative IPC: 3.998 (Simulation time: 00 hr 25 min 31 sec)
Heartbeat CPU 0 instructions: 720000002 cycles: 180097732 heartbeat IPC: 4 cumulative IPC: 3.998 (Simulation time: 00 hr 25 min 51 sec)
Heartbeat CPU 0 instructions: 730000002 cycles: 182597732 heartbeat IPC: 4 cumulative IPC: 3.998 (Simulation time: 00 hr 26 min 12 sec)
Heartbeat CPU 0 instructions: 740000002 cycles: 185097732 heartbeat IPC: 4 cumulative IPC: 3.998 (Simulation time: 00 hr 26 min 32 sec)
Heartbeat CPU 0 instructions: 750000002 cycles: 187598170 heartbeat IPC: 3.999 cumulative IPC: 3.998 (Simulation time: 00 hr 26 min 52 sec)
Heartbeat CPU 0 instructions: 760000001 cycles: 190098576 heartbeat IPC: 3.999 cumulative IPC: 3.998 (Simulation time: 00 hr 27 min 12 sec)
Heartbeat CPU 0 instructions: 770000002 cycles: 192598704 heartbeat IPC: 4 cumulative IPC: 3.998 (Simulation time: 00 hr 27 min 32 sec)
Heartbeat CPU 0 instructions: 780000002 cycles: 195098704 heartbeat IPC: 4 cumulative IPC: 3.998 (Simulation time: 00 hr 27 min 52 sec)
Heartbeat CPU 0 instructions: 790000002 cycles: 197599082 heartbeat IPC: 3.999 cumulative IPC: 3.998 (Simulation time: 00 hr 28 min 12 sec)
Heartbeat CPU 0 instructions: 800000003 cycles: 200099386 heartbeat IPC: 4 cumulative IPC: 3.998 (Simulation time: 00 hr 28 min 32 sec)
Heartbeat CPU 0 instructions: 810000001 cycles: 202600132 heartbeat IPC: 3.999 cumulative IPC: 3.998 (Simulation time: 00 hr 28 min 52 sec)
Heartbeat CPU 0 instructions: 820000001 cycles: 205100132 heartbeat IPC: 4 cumulative IPC: 3.998 (Simulation time: 00 hr 29 min 13 sec)
Heartbeat CPU 0 instructions: 830000001 cycles: 207600132 heartbeat IPC: 4 cumulative IPC: 3.998 (Simulation time: 00 hr 29 min 33 sec)
Heartbeat CPU 0 instructions: 840000002 cycles: 210100315 heartbeat IPC: 4 cumulative IPC: 3.998 (Simulation time: 00 hr 29 min 53 sec)
Heartbeat CPU 0 instructions: 850000003 cycles: 212601791 heartbeat IPC: 3.998 cumulative IPC: 3.998 (Simulation time: 00 hr 30 min 13 sec)
Heartbeat CPU 0 instructions: 860000003 cycles: 215101791 heartbeat IPC: 4 cumulative IPC: 3.998 (Simulation time: 00 hr 30 min 33 sec)
Heartbeat CPU 0 instructions: 870000003 cycles: 217601791 heartbeat IPC: 4 cumulative IPC: 3.998 (Simulation time: 00 hr 30 min 53 sec)
Heartbeat CPU 0 instructions: 880000002 cycles: 220102640 heartbeat IPC: 3.999 cumulative IPC: 3.998 (Simulation time: 00 hr 31 min 13 sec)
Heartbeat CPU 0 instructions: 890000002 cycles: 222602640 heartbeat IPC: 4 cumulative IPC: 3.998 (Simulation time: 00 hr 31 min 34 sec)
Heartbeat CPU 0 instructions: 900000002 cycles: 225102888 heartbeat IPC: 4 cumulative IPC: 3.998 (Simulation time: 00 hr 31 min 54 sec)
Heartbeat CPU 0 instructions: 910000000 cycles: 227603281 heartbeat IPC: 3.999 cumulative IPC: 3.998 (Simulation time: 00 hr 32 min 14 sec)
Heartbeat CPU 0 instructions: 920000001 cycles: 230103679 heartbeat IPC: 3.999 cumulative IPC: 3.998 (Simulation time: 00 hr 32 min 34 sec)
Heartbeat CPU 0 instructions: 930000003 cycles: 232603933 heartbeat IPC: 4 cumulative IPC: 3.998 (Simulation time: 00 hr 32 min 54 sec)
Heartbeat CPU 0 instructions: 940000003 cycles: 235103933 heartbeat IPC: 4 cumulative IPC: 3.998 (Simulation time: 00 hr 33 min 15 sec)
Heartbeat CPU 0 instructions: 950000003 cycles: 237604281 heartbeat IPC: 3.999 cumulative IPC: 3.998 (Simulation time: 00 hr 33 min 35 sec)
Heartbeat CPU 0 instructions: 960000000 cycles: 240105060 heartbeat IPC: 3.999 cumulative IPC: 3.998 (Simulation time: 00 hr 33 min 55 sec)
Heartbeat CPU 0 instructions: 970000003 cycles: 242605110 heartbeat IPC: 4 cumulative IPC: 3.998 (Simulation time: 00 hr 34 min 15 sec)
Heartbeat CPU 0 instructions: 980000002 cycles: 245105114 heartbeat IPC: 4 cumulative IPC: 3.998 (Simulation time: 00 hr 34 min 36 sec)
Heartbeat CPU 0 instructions: 990000003 cycles: 247606640 heartbeat IPC: 3.998 cumulative IPC: 3.998 (Simulation time: 00 hr 34 min 57 sec)
Heartbeat CPU 0 instructions: 1000000003 cycles: 250106640 heartbeat IPC: 4 cumulative IPC: 3.998 (Simulation time: 00 hr 35 min 17 sec)
Warmup finished CPU 0 instructions: 1000000003 cycles: 250106641 cumulative IPC: 3.998 (Simulation time: 00 hr 35 min 17 sec)
Warmup complete CPU 0 instructions: 1000000003 cycles: 250106641 cumulative IPC: 3.998 (Simulation time: 00 hr 35 min 17 sec)
Heartbeat CPU 0 instructions: 1010000002 cycles: 253037551 heartbeat IPC: 3.412 cumulative IPC: 3.412 (Simulation time: 00 hr 35 min 42 sec)
Heartbeat CPU 0 instructions: 1020000003 cycles: 255882027 heartbeat IPC: 3.516 cumulative IPC: 3.463 (Simulation time: 00 hr 36 min 06 sec)
Heartbeat CPU 0 instructions: 1030000000 cycles: 258645593 heartbeat IPC: 3.619 cumulative IPC: 3.513 (Simulation time: 00 hr 36 min 30 sec)
Heartbeat CPU 0 instructions: 1040000000 cycles: 261440710 heartbeat IPC: 3.578 cumulative IPC: 3.529 (Simulation time: 00 hr 36 min 54 sec)
Heartbeat CPU 0 instructions: 1050000000 cycles: 264276881 heartbeat IPC: 3.526 cumulative IPC: 3.529 (Simulation time: 00 hr 37 min 18 sec)
Heartbeat CPU 0 instructions: 1060000001 cycles: 267190956 heartbeat IPC: 3.432 cumulative IPC: 3.512 (Simulation time: 00 hr 37 min 42 sec)
Heartbeat CPU 0 instructions: 1070000000 cycles: 270182658 heartbeat IPC: 3.343 cumulative IPC: 3.487 (Simulation time: 00 hr 38 min 07 sec)
Heartbeat CPU 0 instructions: 1080000003 cycles: 273052665 heartbeat IPC: 3.484 cumulative IPC: 3.486 (Simulation time: 00 hr 38 min 31 sec)
Heartbeat CPU 0 instructions: 1090000000 cycles: 275947415 heartbeat IPC: 3.455 cumulative IPC: 3.483 (Simulation time: 00 hr 38 min 56 sec)
Heartbeat CPU 0 instructions: 1100000000 cycles: 278711856 heartbeat IPC: 3.617 cumulative IPC: 3.496 (Simulation time: 00 hr 39 min 20 sec)
Heartbeat CPU 0 instructions: 1110000004 cycles: 281620683 heartbeat IPC: 3.438 cumulative IPC: 3.491 (Simulation time: 00 hr 39 min 44 sec)
Heartbeat CPU 0 instructions: 1120000000 cycles: 284447364 heartbeat IPC: 3.538 cumulative IPC: 3.494 (Simulation time: 00 hr 40 min 08 sec)
Heartbeat CPU 0 instructions: 1130000002 cycles: 287072045 heartbeat IPC: 3.81 cumulative IPC: 3.517 (Simulation time: 00 hr 40 min 32 sec)
Heartbeat CPU 0 instructions: 1140000002 cycles: 290069409 heartbeat IPC: 3.336 cumulative IPC: 3.503 (Simulation time: 00 hr 40 min 56 sec)
Heartbeat CPU 0 instructions: 1150000000 cycles: 292944098 heartbeat IPC: 3.479 cumulative IPC: 3.502 (Simulation time: 00 hr 41 min 20 sec)
Heartbeat CPU 0 instructions: 1160000000 cycles: 295800406 heartbeat IPC: 3.501 cumulative IPC: 3.502 (Simulation time: 00 hr 41 min 44 sec)
Heartbeat CPU 0 instructions: 1170000004 cycles: 298549963 heartbeat IPC: 3.637 cumulative IPC: 3.509 (Simulation time: 00 hr 42 min 08 sec)
Heartbeat CPU 0 instructions: 1180000004 cycles: 301359109 heartbeat IPC: 3.56 cumulative IPC: 3.512 (Simulation time: 00 hr 42 min 32 sec)
Heartbeat CPU 0 instructions: 1190000004 cycles: 304280279 heartbeat IPC: 3.423 cumulative IPC: 3.507 (Simulation time: 00 hr 42 min 56 sec)
Heartbeat CPU 0 instructions: 1200000000 cycles: 307002331 heartbeat IPC: 3.674 cumulative IPC: 3.515 (Simulation time: 00 hr 43 min 20 sec)
Heartbeat CPU 0 instructions: 1210000003 cycles: 309865099 heartbeat IPC: 3.493 cumulative IPC: 3.514 (Simulation time: 00 hr 43 min 44 sec)
Heartbeat CPU 0 instructions: 1220000002 cycles: 313726255 heartbeat IPC: 2.59 cumulative IPC: 3.458 (Simulation time: 00 hr 44 min 12 sec)
Heartbeat CPU 0 instructions: 1230000001 cycles: 317980104 heartbeat IPC: 2.351 cumulative IPC: 3.389 (Simulation time: 00 hr 44 min 42 sec)
Heartbeat CPU 0 instructions: 1240000000 cycles: 323120260 heartbeat IPC: 1.945 cumulative IPC: 3.287 (Simulation time: 00 hr 45 min 15 sec)
Heartbeat CPU 0 instructions: 1250000002 cycles: 328587110 heartbeat IPC: 1.829 cumulative IPC: 3.186 (Simulation time: 00 hr 45 min 49 sec)
Heartbeat CPU 0 instructions: 1260000002 cycles: 331600354 heartbeat IPC: 3.319 cumulative IPC: 3.19 (Simulation time: 00 hr 46 min 14 sec)
Heartbeat CPU 0 instructions: 1270000003 cycles: 334498586 heartbeat IPC: 3.45 cumulative IPC: 3.199 (Simulation time: 00 hr 46 min 38 sec)
Heartbeat CPU 0 instructions: 1280000001 cycles: 337531116 heartbeat IPC: 3.298 cumulative IPC: 3.203 (Simulation time: 00 hr 47 min 03 sec)
Heartbeat CPU 0 instructions: 1290000002 cycles: 340537892 heartbeat IPC: 3.326 cumulative IPC: 3.207 (Simulation time: 00 hr 47 min 28 sec)
Heartbeat CPU 0 instructions: 1300000001 cycles: 343569567 heartbeat IPC: 3.299 cumulative IPC: 3.21 (Simulation time: 00 hr 47 min 54 sec)
Heartbeat CPU 0 instructions: 1310000000 cycles: 346625980 heartbeat IPC: 3.272 cumulative IPC: 3.212 (Simulation time: 00 hr 48 min 19 sec)
Heartbeat CPU 0 instructions: 1320000003 cycles: 352286861 heartbeat IPC: 1.767 cumulative IPC: 3.132 (Simulation time: 00 hr 48 min 54 sec)
Heartbeat CPU 0 instructions: 1330000001 cycles: 358000751 heartbeat IPC: 1.75 cumulative IPC: 3.059 (Simulation time: 00 hr 49 min 29 sec)
Heartbeat CPU 0 instructions: 1340000003 cycles: 363081494 heartbeat IPC: 1.968 cumulative IPC: 3.01 (Simulation time: 00 hr 50 min 02 sec)
Heartbeat CPU 0 instructions: 1350000001 cycles: 366223736 heartbeat IPC: 3.182 cumulative IPC: 3.014 (Simulation time: 00 hr 50 min 27 sec)
Heartbeat CPU 0 instructions: 1360000000 cycles: 369413594 heartbeat IPC: 3.135 cumulative IPC: 3.017 (Simulation time: 00 hr 50 min 53 sec)
Heartbeat CPU 0 instructions: 1370000002 cycles: 372615817 heartbeat IPC: 3.123 cumulative IPC: 3.02 (Simulation time: 00 hr 51 min 17 sec)
Heartbeat CPU 0 instructions: 1380000000 cycles: 378293797 heartbeat IPC: 1.761 cumulative IPC: 2.964 (Simulation time: 00 hr 51 min 50 sec)
Heartbeat CPU 0 instructions: 1390000003 cycles: 384149506 heartbeat IPC: 1.708 cumulative IPC: 2.91 (Simulation time: 00 hr 52 min 24 sec)
Heartbeat CPU 0 instructions: 1400000001 cycles: 388709824 heartbeat IPC: 2.193 cumulative IPC: 2.886 (Simulation time: 00 hr 52 min 51 sec)
Heartbeat CPU 0 instructions: 1410000003 cycles: 391607541 heartbeat IPC: 3.451 cumulative IPC: 2.898 (Simulation time: 00 hr 53 min 12 sec)
Heartbeat CPU 0 instructions: 1420000002 cycles: 394524725 heartbeat IPC: 3.428 cumulative IPC: 2.908 (Simulation time: 00 hr 53 min 33 sec)
Heartbeat CPU 0 instructions: 1430000001 cycles: 397416739 heartbeat IPC: 3.458 cumulative IPC: 2.919 (Simulation time: 00 hr 53 min 54 sec)
Heartbeat CPU 0 instructions: 1440000002 cycles: 400290042 heartbeat IPC: 3.48 cumulative IPC: 2.93 (Simulation time: 00 hr 54 min 16 sec)
Heartbeat CPU 0 instructions: 1450000000 cycles: 403136510 heartbeat IPC: 3.513 cumulative IPC: 2.941 (Simulation time: 00 hr 54 min 37 sec)
Heartbeat CPU 0 instructions: 1460000000 cycles: 406031814 heartbeat IPC: 3.454 cumulative IPC: 2.95 (Simulation time: 00 hr 54 min 58 sec)
Heartbeat CPU 0 instructions: 1470000004 cycles: 408954742 heartbeat IPC: 3.421 cumulative IPC: 2.959 (Simulation time: 00 hr 55 min 20 sec)
Heartbeat CPU 0 instructions: 1480000002 cycles: 411857131 heartbeat IPC: 3.445 cumulative IPC: 2.968 (Simulation time: 00 hr 55 min 41 sec)
Heartbeat CPU 0 instructions: 1490000002 cycles: 414714357 heartbeat IPC: 3.5 cumulative IPC: 2.977 (Simulation time: 00 hr 56 min 01 sec)
Heartbeat CPU 0 instructions: 1500000001 cycles: 417691353 heartbeat IPC: 3.359 cumulative IPC: 2.984 (Simulation time: 00 hr 56 min 21 sec)
Simulation finished CPU 0 instructions: 500000003 cycles: 167584714 cumulative IPC: 2.984 (Simulation time: 00 hr 56 min 21 sec)
Simulation complete CPU 0 instructions: 500000003 cycles: 167584714 cumulative IPC: 2.984 (Simulation time: 00 hr 56 min 21 sec)

ChampSim completed all CPUs

=== Simulation ===
CPU 0 runs traces/600.perlbench_s-210B.champsimtrace.xz
Region of Interest Statistics

CPU 0 cumulative IPC: 2.984 instructions: 500000003 cycles: 167584714
CPU 0 Branch Prediction Accuracy: 98.39% MPKI: 2.419 Average ROB Occupancy at Mispredict: 96.27
Branch type MPKI
BRANCH_DIRECT_JUMP: 0.0578
BRANCH_INDIRECT: 0.296
BRANCH_CONDITIONAL: 1.89
BRANCH_DIRECT_CALL: 0.0136
BRANCH_INDIRECT_CALL: 0.154
BRANCH_RETURN: 0.0117

LLC TOTAL        ACCESS:     353603 HIT:     105912 MISS:     247691
LLC LOAD         ACCESS:     283666 HIT:      61725 MISS:     221941
LLC RFO          ACCESS:      16399 HIT:       4939 MISS:      11460
LLC PREFETCH     ACCESS:          0 HIT:          0 MISS:          0
LLC WRITE        ACCESS:      36154 HIT:      35946 MISS:        208
LLC TRANSLATION  ACCESS:      17384 HIT:       3302 MISS:      14082
LLC PREFETCH REQUESTED:          0 ISSUED:          0 USEFUL:          0 USELESS:          0
LLC AVERAGE MISS LATENCY: 211.8 cycles
cpu0_DTLB TOTAL        ACCESS:  114503186 HIT:  113678440 MISS:     824746
cpu0_DTLB LOAD         ACCESS:  114503186 HIT:  113678440 MISS:     824746
cpu0_DTLB RFO          ACCESS:          0 HIT:          0 MISS:          0
cpu0_DTLB PREFETCH     ACCESS:          0 HIT:          0 MISS:          0
cpu0_DTLB WRITE        ACCESS:          0 HIT:          0 MISS:          0
cpu0_DTLB TRANSLATION  ACCESS:          0 HIT:          0 MISS:          0
cpu0_DTLB PREFETCH REQUESTED:          0 ISSUED:          0 USEFUL:          0 USELESS:          0
cpu0_DTLB AVERAGE MISS LATENCY: 9.035 cycles
cpu0_ITLB TOTAL        ACCESS:    6563709 HIT:    6371083 MISS:     192626
cpu0_ITLB LOAD         ACCESS:    6563709 HIT:    6371083 MISS:     192626
cpu0_ITLB RFO          ACCESS:          0 HIT:          0 MISS:          0
cpu0_ITLB PREFETCH     ACCESS:          0 HIT:          0 MISS:          0
cpu0_ITLB WRITE        ACCESS:          0 HIT:          0 MISS:          0
cpu0_ITLB TRANSLATION  ACCESS:          0 HIT:          0 MISS:          0
cpu0_ITLB PREFETCH REQUESTED:          0 ISSUED:          0 USEFUL:          0 USELESS:          0
cpu0_ITLB AVERAGE MISS LATENCY: 1.926 cycles
cpu0_L1D TOTAL        ACCESS:  164604014 HIT:  163432586 MISS:    1171428
cpu0_L1D LOAD         ACCESS:   61840166 HIT:   60857599 MISS:     982567
cpu0_L1D RFO          ACCESS:          0 HIT:          0 MISS:          0
cpu0_L1D PREFETCH     ACCESS:          0 HIT:          0 MISS:          0
cpu0_L1D WRITE        ACCESS:  102737023 HIT:  102572728 MISS:     164295
cpu0_L1D TRANSLATION  ACCESS:      26825 HIT:       2259 MISS:      24566
cpu0_L1D PREFETCH REQUESTED:          0 ISSUED:          0 USEFUL:          0 USELESS:          0
cpu0_L1D AVERAGE MISS LATENCY: 48.41 cycles
cpu0_L1I TOTAL        ACCESS:    7343339 HIT:    6173412 MISS:    1169927
cpu0_L1I LOAD         ACCESS:    7343339 HIT:    6173412 MISS:    1169927
cpu0_L1I RFO          ACCESS:          0 HIT:          0 MISS:          0
cpu0_L1I PREFETCH     ACCESS:          0 HIT:          0 MISS:          0
cpu0_L1I WRITE        ACCESS:          0 HIT:          0 MISS:          0
cpu0_L1I TRANSLATION  ACCESS:          0 HIT:          0 MISS:          0
cpu0_L1I PREFETCH REQUESTED:          0 ISSUED:          0 USEFUL:          0 USELESS:          0
cpu0_L1I AVERAGE MISS LATENCY: 9.183 cycles
cpu0_L2C TOTAL        ACCESS:    1566060 HIT:    1248264 MISS:     317796
cpu0_L2C LOAD         ACCESS:    1387011 HIT:    1103345 MISS:     283666
cpu0_L2C RFO          ACCESS:      48935 HIT:      32536 MISS:      16399
cpu0_L2C PREFETCH     ACCESS:          0 HIT:          0 MISS:          0
cpu0_L2C WRITE        ACCESS:     105621 HIT:     105274 MISS:        347
cpu0_L2C TRANSLATION  ACCESS:      24493 HIT:       7109 MISS:      17384
cpu0_L2C PREFETCH REQUESTED:          0 ISSUED:          0 USEFUL:          0 USELESS:          0
cpu0_L2C AVERAGE MISS LATENCY: 185.9 cycles
cpu0_STLB TOTAL        ACCESS:     626186 HIT:     602695 MISS:      23491
cpu0_STLB LOAD         ACCESS:     626186 HIT:     602695 MISS:      23491
cpu0_STLB RFO          ACCESS:          0 HIT:          0 MISS:          0
cpu0_STLB PREFETCH     ACCESS:          0 HIT:          0 MISS:          0
cpu0_STLB WRITE        ACCESS:          0 HIT:          0 MISS:          0
cpu0_STLB TRANSLATION  ACCESS:          0 HIT:          0 MISS:          0
cpu0_STLB PREFETCH REQUESTED:          0 ISSUED:          0 USEFUL:          0 USELESS:          0
cpu0_STLB AVERAGE MISS LATENCY: 175 cycles

DRAM Statistics

Channel 0 RQ ROW_BUFFER_HIT:      56446
  ROW_BUFFER_MISS:     191032
 AVG DBUS CONGESTED CYCLE: 3.826
WQ ROW_BUFFER_HIT: Channel 0 
  ROW_BUFFER_MISS:      10151
  FULL:      15304

NOT_BRANCH: 0

BRANCH_DIRECT_JUMP: 30606209

BRANCH_INDIRECT: 10609449

BRANCH_CONDITIONAL: 158589385

BRANCH_DIRECT_CALL: 10602417

BRANCH_INDIRECT_CALL: 1233095

BRANCH_RETURN: 11835512

BRANCH_OTHER: 0
