WARNING: physical memory size is smaller than virtual memory size.

*** ChampSim Multicore Out-of-Order Simulator ***
Warmup Instructions: 1000000000
Simulation Instructions: 500000000
Number of CPUs: 1
Page size: 4096

Off-chip DRAM Size: 4 GiB Channels: 1 Width: 64-bit Data Race: 3200 MT/s
Heartbeat CPU 0 instructions: 10000000 cycles: 2500066 heartbeat IPC: 4 cumulative IPC: 4 (Simulation time: 00 hr 00 min 33 sec)
Heartbeat CPU 0 instructions: 20000000 cycles: 5000066 heartbeat IPC: 4 cumulative IPC: 4 (Simulation time: 00 hr 01 min 11 sec)
Heartbeat CPU 0 instructions: 30000000 cycles: 7500066 heartbeat IPC: 4 cumulative IPC: 4 (Simulation time: 00 hr 01 min 50 sec)
Heartbeat CPU 0 instructions: 40000000 cycles: 10000066 heartbeat IPC: 4 cumulative IPC: 4 (Simulation time: 00 hr 02 min 29 sec)
Heartbeat CPU 0 instructions: 50000002 cycles: 12500111 heartbeat IPC: 4 cumulative IPC: 4 (Simulation time: 00 hr 03 min 08 sec)
Heartbeat CPU 0 instructions: 60000000 cycles: 15000216 heartbeat IPC: 4 cumulative IPC: 4 (Simulation time: 00 hr 03 min 47 sec)
Heartbeat CPU 0 instructions: 70000000 cycles: 17500216 heartbeat IPC: 4 cumulative IPC: 4 (Simulation time: 00 hr 04 min 25 sec)
Heartbeat CPU 0 instructions: 80000000 cycles: 20000216 heartbeat IPC: 4 cumulative IPC: 4 (Simulation time: 00 hr 05 min 04 sec)
Heartbeat CPU 0 instructions: 90000000 cycles: 22500216 heartbeat IPC: 4 cumulative IPC: 4 (Simulation time: 00 hr 05 min 43 sec)
Heartbeat CPU 0 instructions: 100000001 cycles: 25000532 heartbeat IPC: 3.999 cumulative IPC: 4 (Simulation time: 00 hr 06 min 22 sec)
Heartbeat CPU 0 instructions: 110000001 cycles: 27500532 heartbeat IPC: 4 cumulative IPC: 4 (Simulation time: 00 hr 07 min 00 sec)
Heartbeat CPU 0 instructions: 120000001 cycles: 30000532 heartbeat IPC: 4 cumulative IPC: 4 (Simulation time: 00 hr 07 min 39 sec)
Heartbeat CPU 0 instructions: 130000003 cycles: 32500580 heartbeat IPC: 4 cumulative IPC: 4 (Simulation time: 00 hr 08 min 18 sec)
Heartbeat CPU 0 instructions: 140000001 cycles: 35000626 heartbeat IPC: 4 cumulative IPC: 4 (Simulation time: 00 hr 08 min 57 sec)
Heartbeat CPU 0 instructions: 150000001 cycles: 37500626 heartbeat IPC: 4 cumulative IPC: 4 (Simulation time: 00 hr 09 min 36 sec)
Heartbeat CPU 0 instructions: 160000001 cycles: 40000626 heartbeat IPC: 4 cumulative IPC: 4 (Simulation time: 00 hr 10 min 15 sec)
Heartbeat CPU 0 instructions: 170000000 cycles: 42500957 heartbeat IPC: 3.999 cumulative IPC: 4 (Simulation time: 00 hr 10 min 41 sec)
Heartbeat CPU 0 instructions: 180000000 cycles: 45000957 heartbeat IPC: 4 cumulative IPC: 4 (Simulation time: 00 hr 11 min 02 sec)
Heartbeat CPU 0 instructions: 190000000 cycles: 47500957 heartbeat IPC: 4 cumulative IPC: 4 (Simulation time: 00 hr 11 min 23 sec)
Heartbeat CPU 0 instructions: 200000000 cycles: 50000988 heartbeat IPC: 4 cumulative IPC: 4 (Simulation time: 00 hr 11 min 44 sec)
Heartbeat CPU 0 instructions: 210000000 cycles: 52500988 heartbeat IPC: 4 cumulative IPC: 4 (Simulation time: 00 hr 12 min 06 sec)
Heartbeat CPU 0 instructions: 220000000 cycles: 55000988 heartbeat IPC: 4 cumulative IPC: 4 (Simulation time: 00 hr 12 min 27 sec)
Heartbeat CPU 0 instructions: 230000000 cycles: 57500988 heartbeat IPC: 4 cumulative IPC: 4 (Simulation time: 00 hr 12 min 52 sec)
Heartbeat CPU 0 instructions: 240000000 cycles: 60001146 heartbeat IPC: 4 cumulative IPC: 4 (Simulation time: 00 hr 13 min 30 sec)
Heartbeat CPU 0 instructions: 250000003 cycles: 62501325 heartbeat IPC: 4 cumulative IPC: 4 (Simulation time: 00 hr 14 min 09 sec)
Heartbeat CPU 0 instructions: 260000003 cycles: 65001325 heartbeat IPC: 4 cumulative IPC: 4 (Simulation time: 00 hr 14 min 50 sec)
Heartbeat CPU 0 instructions: 270000003 cycles: 67501325 heartbeat IPC: 4 cumulative IPC: 4 (Simulation time: 00 hr 15 min 28 sec)
Heartbeat CPU 0 instructions: 280000003 cycles: 70001325 heartbeat IPC: 4 cumulative IPC: 4 (Simulation time: 00 hr 15 min 55 sec)
Heartbeat CPU 0 instructions: 290000003 cycles: 72501465 heartbeat IPC: 4 cumulative IPC: 4 (Simulation time: 00 hr 16 min 34 sec)
Heartbeat CPU 0 instructions: 300000003 cycles: 75001465 heartbeat IPC: 4 cumulative IPC: 4 (Simulation time: 00 hr 17 min 13 sec)
Heartbeat CPU 0 instructions: 310000002 cycles: 77501658 heartbeat IPC: 4 cumulative IPC: 4 (Simulation time: 00 hr 17 min 41 sec)
Heartbeat CPU 0 instructions: 320000003 cycles: 80001907 heartbeat IPC: 4 cumulative IPC: 4 (Simulation time: 00 hr 18 min 06 sec)
Heartbeat CPU 0 instructions: 330000002 cycles: 82504538 heartbeat IPC: 3.996 cumulative IPC: 4 (Simulation time: 00 hr 18 min 36 sec)
Heartbeat CPU 0 instructions: 340000000 cycles: 85004657 heartbeat IPC: 4 cumulative IPC: 4 (Simulation time: 00 hr 18 min 59 sec)
Heartbeat CPU 0 instructions: 350000000 cycles: 87504657 heartbeat IPC: 4 cumulative IPC: 4 (Simulation time: 00 hr 19 min 36 sec)
Heartbeat CPU 0 instructions: 360000001 cycles: 90011959 heartbeat IPC: 3.988 cumulative IPC: 3.999 (Simulation time: 00 hr 20 min 09 sec)
Heartbeat CPU 0 instructions: 370000001 cycles: 92511959 heartbeat IPC: 4 cumulative IPC: 3.999 (Simulation time: 00 hr 20 min 33 sec)
Heartbeat CPU 0 instructions: 380000002 cycles: 95011972 heartbeat IPC: 4 cumulative IPC: 3.999 (Simulation time: 00 hr 21 min 20 sec)
Heartbeat CPU 0 instructions: 390000003 cycles: 97511986 heartbeat IPC: 4 cumulative IPC: 4 (Simulation time: 00 hr 22 min 05 sec)
Heartbeat CPU 0 instructions: 400000003 cycles: 100011986 heartbeat IPC: 4 cumulative IPC: 4 (Simulation time: 00 hr 22 min 49 sec)
Heartbeat CPU 0 instructions: 410000003 cycles: 102511986 heartbeat IPC: 4 cumulative IPC: 4 (Simulation time: 00 hr 23 min 36 sec)
Heartbeat CPU 0 instructions: 420000003 cycles: 105012038 heartbeat IPC: 4 cumulative IPC: 4 (Simulation time: 00 hr 24 min 24 sec)
Heartbeat CPU 0 instructions: 430000001 cycles: 107512079 heartbeat IPC: 4 cumulative IPC: 4 (Simulation time: 00 hr 25 min 03 sec)
Heartbeat CPU 0 instructions: 440000003 cycles: 110019424 heartbeat IPC: 3.988 cumulative IPC: 3.999 (Simulation time: 00 hr 25 min 42 sec)
Heartbeat CPU 0 instructions: 450000003 cycles: 112519424 heartbeat IPC: 4 cumulative IPC: 3.999 (Simulation time: 00 hr 26 min 22 sec)
Heartbeat CPU 0 instructions: 460000003 cycles: 115019424 heartbeat IPC: 4 cumulative IPC: 3.999 (Simulation time: 00 hr 27 min 01 sec)
Heartbeat CPU 0 instructions: 470000003 cycles: 117528506 heartbeat IPC: 3.986 cumulative IPC: 3.999 (Simulation time: 00 hr 27 min 41 sec)
Heartbeat CPU 0 instructions: 480000003 cycles: 120032402 heartbeat IPC: 3.994 cumulative IPC: 3.999 (Simulation time: 00 hr 28 min 21 sec)
Heartbeat CPU 0 instructions: 490000000 cycles: 122532663 heartbeat IPC: 4 cumulative IPC: 3.999 (Simulation time: 00 hr 29 min 02 sec)
Heartbeat CPU 0 instructions: 500000001 cycles: 125032811 heartbeat IPC: 4 cumulative IPC: 3.999 (Simulation time: 00 hr 29 min 42 sec)
Heartbeat CPU 0 instructions: 510000002 cycles: 127533259 heartbeat IPC: 3.999 cumulative IPC: 3.999 (Simulation time: 00 hr 30 min 22 sec)
Heartbeat CPU 0 instructions: 520000002 cycles: 130042519 heartbeat IPC: 3.985 cumulative IPC: 3.999 (Simulation time: 00 hr 31 min 04 sec)
Heartbeat CPU 0 instructions: 530000001 cycles: 132542888 heartbeat IPC: 3.999 cumulative IPC: 3.999 (Simulation time: 00 hr 31 min 47 sec)
Heartbeat CPU 0 instructions: 540000000 cycles: 135053613 heartbeat IPC: 3.983 cumulative IPC: 3.998 (Simulation time: 00 hr 32 min 28 sec)
Heartbeat CPU 0 instructions: 550000001 cycles: 137558624 heartbeat IPC: 3.992 cumulative IPC: 3.998 (Simulation time: 00 hr 33 min 08 sec)
Heartbeat CPU 0 instructions: 560000001 cycles: 140058624 heartbeat IPC: 4 cumulative IPC: 3.998 (Simulation time: 00 hr 33 min 47 sec)
Heartbeat CPU 0 instructions: 570000001 cycles: 142558624 heartbeat IPC: 4 cumulative IPC: 3.998 (Simulation time: 00 hr 34 min 26 sec)
Heartbeat CPU 0 instructions: 580000001 cycles: 145058624 heartbeat IPC: 4 cumulative IPC: 3.998 (Simulation time: 00 hr 35 min 05 sec)
Heartbeat CPU 0 instructions: 590000000 cycles: 147559422 heartbeat IPC: 3.999 cumulative IPC: 3.998 (Simulation time: 00 hr 35 min 44 sec)
Heartbeat CPU 0 instructions: 600000003 cycles: 150060191 heartbeat IPC: 3.999 cumulative IPC: 3.998 (Simulation time: 00 hr 36 min 24 sec)
Heartbeat CPU 0 instructions: 610000002 cycles: 152561269 heartbeat IPC: 3.998 cumulative IPC: 3.998 (Simulation time: 00 hr 37 min 02 sec)
Heartbeat CPU 0 instructions: 620000001 cycles: 155064943 heartbeat IPC: 3.994 cumulative IPC: 3.998 (Simulation time: 00 hr 37 min 33 sec)
Heartbeat CPU 0 instructions: 630000000 cycles: 157566359 heartbeat IPC: 3.998 cumulative IPC: 3.998 (Simulation time: 00 hr 37 min 56 sec)
Heartbeat CPU 0 instructions: 640000002 cycles: 160066507 heartbeat IPC: 4 cumulative IPC: 3.998 (Simulation time: 00 hr 38 min 18 sec)
Heartbeat CPU 0 instructions: 650000003 cycles: 162566885 heartbeat IPC: 3.999 cumulative IPC: 3.998 (Simulation time: 00 hr 38 min 41 sec)
Heartbeat CPU 0 instructions: 660000002 cycles: 165069391 heartbeat IPC: 3.996 cumulative IPC: 3.998 (Simulation time: 00 hr 39 min 04 sec)
Heartbeat CPU 0 instructions: 670000002 cycles: 167569507 heartbeat IPC: 4 cumulative IPC: 3.998 (Simulation time: 00 hr 39 min 26 sec)
Heartbeat CPU 0 instructions: 680000003 cycles: 170069700 heartbeat IPC: 4 cumulative IPC: 3.998 (Simulation time: 00 hr 39 min 50 sec)
Heartbeat CPU 0 instructions: 690000003 cycles: 172598208 heartbeat IPC: 3.955 cumulative IPC: 3.998 (Simulation time: 00 hr 40 min 13 sec)
Heartbeat CPU 0 instructions: 700000003 cycles: 175098208 heartbeat IPC: 4 cumulative IPC: 3.998 (Simulation time: 00 hr 40 min 39 sec)
Heartbeat CPU 0 instructions: 710000002 cycles: 177598409 heartbeat IPC: 4 cumulative IPC: 3.998 (Simulation time: 00 hr 41 min 18 sec)
Heartbeat CPU 0 instructions: 720000002 cycles: 180098582 heartbeat IPC: 4 cumulative IPC: 3.998 (Simulation time: 00 hr 41 min 50 sec)
Heartbeat CPU 0 instructions: 730000002 cycles: 182598582 heartbeat IPC: 4 cumulative IPC: 3.998 (Simulation time: 00 hr 42 min 13 sec)
Heartbeat CPU 0 instructions: 740000002 cycles: 185098582 heartbeat IPC: 4 cumulative IPC: 3.998 (Simulation time: 00 hr 42 min 35 sec)
Heartbeat CPU 0 instructions: 750000002 cycles: 187599024 heartbeat IPC: 3.999 cumulative IPC: 3.998 (Simulation time: 00 hr 42 min 58 sec)
Heartbeat CPU 0 instructions: 760000001 cycles: 190099419 heartbeat IPC: 3.999 cumulative IPC: 3.998 (Simulation time: 00 hr 43 min 20 sec)
Heartbeat CPU 0 instructions: 770000002 cycles: 192599545 heartbeat IPC: 4 cumulative IPC: 3.998 (Simulation time: 00 hr 43 min 42 sec)
Heartbeat CPU 0 instructions: 780000002 cycles: 195099545 heartbeat IPC: 4 cumulative IPC: 3.998 (Simulation time: 00 hr 44 min 04 sec)
Heartbeat CPU 0 instructions: 790000002 cycles: 197599911 heartbeat IPC: 3.999 cumulative IPC: 3.998 (Simulation time: 00 hr 44 min 26 sec)
Heartbeat CPU 0 instructions: 800000003 cycles: 200100217 heartbeat IPC: 4 cumulative IPC: 3.998 (Simulation time: 00 hr 44 min 48 sec)
Heartbeat CPU 0 instructions: 810000001 cycles: 202600968 heartbeat IPC: 3.999 cumulative IPC: 3.998 (Simulation time: 00 hr 45 min 10 sec)
Heartbeat CPU 0 instructions: 820000001 cycles: 205100968 heartbeat IPC: 4 cumulative IPC: 3.998 (Simulation time: 00 hr 45 min 32 sec)
Heartbeat CPU 0 instructions: 830000001 cycles: 207600968 heartbeat IPC: 4 cumulative IPC: 3.998 (Simulation time: 00 hr 45 min 53 sec)
Heartbeat CPU 0 instructions: 840000002 cycles: 210101146 heartbeat IPC: 4 cumulative IPC: 3.998 (Simulation time: 00 hr 46 min 15 sec)
Heartbeat CPU 0 instructions: 850000003 cycles: 212602622 heartbeat IPC: 3.998 cumulative IPC: 3.998 (Simulation time: 00 hr 46 min 37 sec)
Heartbeat CPU 0 instructions: 860000003 cycles: 215102622 heartbeat IPC: 4 cumulative IPC: 3.998 (Simulation time: 00 hr 46 min 59 sec)
Heartbeat CPU 0 instructions: 870000003 cycles: 217602622 heartbeat IPC: 4 cumulative IPC: 3.998 (Simulation time: 00 hr 47 min 21 sec)
Heartbeat CPU 0 instructions: 880000002 cycles: 220103472 heartbeat IPC: 3.999 cumulative IPC: 3.998 (Simulation time: 00 hr 47 min 43 sec)
Heartbeat CPU 0 instructions: 890000002 cycles: 222603472 heartbeat IPC: 4 cumulative IPC: 3.998 (Simulation time: 00 hr 48 min 05 sec)
Heartbeat CPU 0 instructions: 900000002 cycles: 225103721 heartbeat IPC: 4 cumulative IPC: 3.998 (Simulation time: 00 hr 48 min 27 sec)
Heartbeat CPU 0 instructions: 910000000 cycles: 227604115 heartbeat IPC: 3.999 cumulative IPC: 3.998 (Simulation time: 00 hr 48 min 49 sec)
Heartbeat CPU 0 instructions: 920000001 cycles: 230104511 heartbeat IPC: 3.999 cumulative IPC: 3.998 (Simulation time: 00 hr 49 min 11 sec)
Heartbeat CPU 0 instructions: 930000003 cycles: 232604765 heartbeat IPC: 4 cumulative IPC: 3.998 (Simulation time: 00 hr 49 min 33 sec)
Heartbeat CPU 0 instructions: 940000003 cycles: 235104765 heartbeat IPC: 4 cumulative IPC: 3.998 (Simulation time: 00 hr 49 min 55 sec)
Heartbeat CPU 0 instructions: 950000003 cycles: 237605112 heartbeat IPC: 3.999 cumulative IPC: 3.998 (Simulation time: 00 hr 50 min 17 sec)
Heartbeat CPU 0 instructions: 960000000 cycles: 240105889 heartbeat IPC: 3.999 cumulative IPC: 3.998 (Simulation time: 00 hr 50 min 39 sec)
Heartbeat CPU 0 instructions: 970000003 cycles: 242605942 heartbeat IPC: 4 cumulative IPC: 3.998 (Simulation time: 00 hr 51 min 01 sec)
Heartbeat CPU 0 instructions: 980000002 cycles: 245105946 heartbeat IPC: 4 cumulative IPC: 3.998 (Simulation time: 00 hr 51 min 23 sec)
Heartbeat CPU 0 instructions: 990000003 cycles: 247607476 heartbeat IPC: 3.998 cumulative IPC: 3.998 (Simulation time: 00 hr 51 min 45 sec)
Heartbeat CPU 0 instructions: 1000000003 cycles: 250107476 heartbeat IPC: 4 cumulative IPC: 3.998 (Simulation time: 00 hr 52 min 07 sec)
Warmup finished CPU 0 instructions: 1000000003 cycles: 250107477 cumulative IPC: 3.998 (Simulation time: 00 hr 52 min 07 sec)
Warmup complete CPU 0 instructions: 1000000003 cycles: 250107477 cumulative IPC: 3.998 (Simulation time: 00 hr 52 min 07 sec)
Heartbeat CPU 0 instructions: 1010000001 cycles: 253071136 heartbeat IPC: 3.374 cumulative IPC: 3.374 (Simulation time: 00 hr 52 min 34 sec)
Heartbeat CPU 0 instructions: 1020000003 cycles: 255963434 heartbeat IPC: 3.457 cumulative IPC: 3.415 (Simulation time: 00 hr 53 min 00 sec)
Heartbeat CPU 0 instructions: 1030000000 cycles: 258747224 heartbeat IPC: 3.592 cumulative IPC: 3.472 (Simulation time: 00 hr 53 min 26 sec)
Heartbeat CPU 0 instructions: 1040000000 cycles: 261585596 heartbeat IPC: 3.523 cumulative IPC: 3.485 (Simulation time: 00 hr 53 min 52 sec)
Heartbeat CPU 0 instructions: 1050000000 cycles: 264476678 heartbeat IPC: 3.459 cumulative IPC: 3.48 (Simulation time: 00 hr 54 min 18 sec)
Heartbeat CPU 0 instructions: 1060000001 cycles: 267427881 heartbeat IPC: 3.388 cumulative IPC: 3.464 (Simulation time: 00 hr 54 min 45 sec)
Heartbeat CPU 0 instructions: 1070000002 cycles: 270472038 heartbeat IPC: 3.285 cumulative IPC: 3.437 (Simulation time: 00 hr 55 min 12 sec)
Heartbeat CPU 0 instructions: 1080000003 cycles: 273406982 heartbeat IPC: 3.407 cumulative IPC: 3.434 (Simulation time: 00 hr 55 min 38 sec)
Heartbeat CPU 0 instructions: 1090000000 cycles: 276326042 heartbeat IPC: 3.426 cumulative IPC: 3.433 (Simulation time: 00 hr 56 min 05 sec)
Heartbeat CPU 0 instructions: 1100000000 cycles: 279081415 heartbeat IPC: 3.629 cumulative IPC: 3.451 (Simulation time: 00 hr 56 min 30 sec)
Heartbeat CPU 0 instructions: 1110000004 cycles: 282027101 heartbeat IPC: 3.395 cumulative IPC: 3.446 (Simulation time: 00 hr 56 min 57 sec)
Heartbeat CPU 0 instructions: 1120000000 cycles: 284912061 heartbeat IPC: 3.466 cumulative IPC: 3.448 (Simulation time: 00 hr 57 min 23 sec)
Heartbeat CPU 0 instructions: 1130000002 cycles: 287543112 heartbeat IPC: 3.801 cumulative IPC: 3.473 (Simulation time: 00 hr 57 min 49 sec)
Heartbeat CPU 0 instructions: 1140000001 cycles: 290597946 heartbeat IPC: 3.273 cumulative IPC: 3.458 (Simulation time: 00 hr 58 min 15 sec)
Heartbeat CPU 0 instructions: 1150000000 cycles: 293531937 heartbeat IPC: 3.408 cumulative IPC: 3.454 (Simulation time: 00 hr 58 min 42 sec)
Heartbeat CPU 0 instructions: 1160000000 cycles: 296449614 heartbeat IPC: 3.427 cumulative IPC: 3.453 (Simulation time: 00 hr 59 min 08 sec)
Heartbeat CPU 0 instructions: 1170000004 cycles: 299245548 heartbeat IPC: 3.577 cumulative IPC: 3.46 (Simulation time: 00 hr 59 min 34 sec)
Heartbeat CPU 0 instructions: 1180000004 cycles: 302063110 heartbeat IPC: 3.549 cumulative IPC: 3.464 (Simulation time: 00 hr 59 min 59 sec)
Heartbeat CPU 0 instructions: 1190000004 cycles: 305015403 heartbeat IPC: 3.387 cumulative IPC: 3.46 (Simulation time: 01 hr 00 min 26 sec)
Heartbeat CPU 0 instructions: 1200000000 cycles: 307759753 heartbeat IPC: 3.644 cumulative IPC: 3.469 (Simulation time: 01 hr 00 min 52 sec)
Heartbeat CPU 0 instructions: 1210000003 cycles: 310660005 heartbeat IPC: 3.448 cumulative IPC: 3.468 (Simulation time: 01 hr 01 min 18 sec)
Heartbeat CPU 0 instructions: 1220000001 cycles: 314647961 heartbeat IPC: 2.508 cumulative IPC: 3.409 (Simulation time: 01 hr 01 min 48 sec)
Heartbeat CPU 0 instructions: 1230000001 cycles: 319053731 heartbeat IPC: 2.27 cumulative IPC: 3.336 (Simulation time: 01 hr 02 min 20 sec)
Heartbeat CPU 0 instructions: 1240000000 cycles: 324653837 heartbeat IPC: 1.786 cumulative IPC: 3.219 (Simulation time: 01 hr 02 min 56 sec)
Heartbeat CPU 0 instructions: 1250000002 cycles: 330676961 heartbeat IPC: 1.66 cumulative IPC: 3.103 (Simulation time: 01 hr 03 min 33 sec)
Heartbeat CPU 0 instructions: 1260000002 cycles: 333799302 heartbeat IPC: 3.203 cumulative IPC: 3.107 (Simulation time: 01 hr 04 min 00 sec)
Heartbeat CPU 0 instructions: 1270000002 cycles: 336750930 heartbeat IPC: 3.388 cumulative IPC: 3.116 (Simulation time: 01 hr 04 min 25 sec)
Heartbeat CPU 0 instructions: 1280000001 cycles: 339874403 heartbeat IPC: 3.202 cumulative IPC: 3.119 (Simulation time: 01 hr 04 min 52 sec)
Heartbeat CPU 0 instructions: 1290000002 cycles: 342996684 heartbeat IPC: 3.203 cumulative IPC: 3.122 (Simulation time: 01 hr 05 min 19 sec)
Heartbeat CPU 0 instructions: 1300000001 cycles: 346121645 heartbeat IPC: 3.2 cumulative IPC: 3.125 (Simulation time: 01 hr 05 min 45 sec)
Heartbeat CPU 0 instructions: 1310000000 cycles: 349299920 heartbeat IPC: 3.146 cumulative IPC: 3.125 (Simulation time: 01 hr 06 min 12 sec)
Heartbeat CPU 0 instructions: 1320000000 cycles: 355279979 heartbeat IPC: 1.672 cumulative IPC: 3.043 (Simulation time: 01 hr 06 min 49 sec)
Heartbeat CPU 0 instructions: 1330000002 cycles: 361646202 heartbeat IPC: 1.571 cumulative IPC: 2.959 (Simulation time: 01 hr 07 min 28 sec)
Heartbeat CPU 0 instructions: 1340000002 cycles: 367174387 heartbeat IPC: 1.809 cumulative IPC: 2.904 (Simulation time: 01 hr 08 min 04 sec)
Heartbeat CPU 0 instructions: 1350000001 cycles: 370382523 heartbeat IPC: 3.117 cumulative IPC: 2.91 (Simulation time: 01 hr 08 min 30 sec)
Heartbeat CPU 0 instructions: 1360000001 cycles: 373645978 heartbeat IPC: 3.064 cumulative IPC: 2.914 (Simulation time: 01 hr 08 min 58 sec)
Heartbeat CPU 0 instructions: 1370000002 cycles: 376925829 heartbeat IPC: 3.049 cumulative IPC: 2.918 (Simulation time: 01 hr 09 min 25 sec)
Heartbeat CPU 0 instructions: 1380000000 cycles: 382934134 heartbeat IPC: 1.664 cumulative IPC: 2.861 (Simulation time: 01 hr 10 min 03 sec)
Heartbeat CPU 0 instructions: 1390000003 cycles: 389296914 heartbeat IPC: 1.572 cumulative IPC: 2.802 (Simulation time: 01 hr 10 min 41 sec)
Heartbeat CPU 0 instructions: 1400000001 cycles: 394102834 heartbeat IPC: 2.081 cumulative IPC: 2.778 (Simulation time: 01 hr 11 min 14 sec)
Heartbeat CPU 0 instructions: 1410000003 cycles: 397176126 heartbeat IPC: 3.254 cumulative IPC: 2.788 (Simulation time: 01 hr 11 min 40 sec)
Heartbeat CPU 0 instructions: 1420000002 cycles: 400164183 heartbeat IPC: 3.347 cumulative IPC: 2.799 (Simulation time: 01 hr 12 min 06 sec)
Heartbeat CPU 0 instructions: 1430000000 cycles: 403103533 heartbeat IPC: 3.402 cumulative IPC: 2.811 (Simulation time: 01 hr 12 min 31 sec)
Heartbeat CPU 0 instructions: 1440000002 cycles: 406000918 heartbeat IPC: 3.451 cumulative IPC: 2.822 (Simulation time: 01 hr 12 min 57 sec)
Heartbeat CPU 0 instructions: 1450000000 cycles: 408894477 heartbeat IPC: 3.456 cumulative IPC: 2.834 (Simulation time: 01 hr 13 min 22 sec)
Heartbeat CPU 0 instructions: 1460000000 cycles: 411809827 heartbeat IPC: 3.43 cumulative IPC: 2.845 (Simulation time: 01 hr 13 min 48 sec)
Heartbeat CPU 0 instructions: 1470000004 cycles: 414781895 heartbeat IPC: 3.365 cumulative IPC: 2.854 (Simulation time: 01 hr 14 min 14 sec)
Heartbeat CPU 0 instructions: 1480000002 cycles: 417743558 heartbeat IPC: 3.376 cumulative IPC: 2.863 (Simulation time: 01 hr 14 min 40 sec)
Heartbeat CPU 0 instructions: 1490000002 cycles: 420647962 heartbeat IPC: 3.443 cumulative IPC: 2.873 (Simulation time: 01 hr 15 min 05 sec)
Heartbeat CPU 0 instructions: 1500000001 cycles: 423684857 heartbeat IPC: 3.293 cumulative IPC: 2.881 (Simulation time: 01 hr 15 min 31 sec)
Simulation finished CPU 0 instructions: 500000003 cycles: 173577382 cumulative IPC: 2.881 (Simulation time: 01 hr 15 min 31 sec)
Simulation complete CPU 0 instructions: 500000003 cycles: 173577382 cumulative IPC: 2.881 (Simulation time: 01 hr 15 min 31 sec)

ChampSim completed all CPUs

=== Simulation ===
CPU 0 runs traces/600.perlbench_s-210B.champsimtrace.xz
Region of Interest Statistics

CPU 0 cumulative IPC: 2.881 instructions: 500000003 cycles: 173577382
CPU 0 Branch Prediction Accuracy: 98.03% MPKI: 2.961 Average ROB Occupancy at Mispredict: 81.82
Branch type MPKI
BRANCH_DIRECT_JUMP: 0.0578
BRANCH_INDIRECT: 0.296
BRANCH_CONDITIONAL: 2.43
BRANCH_DIRECT_CALL: 0.0136
BRANCH_INDIRECT_CALL: 0.154
BRANCH_RETURN: 0.0117

LLC TOTAL        ACCESS:     355036 HIT:     107568 MISS:     247468
LLC LOAD         ACCESS:     285387 HIT:      63601 MISS:     221786
LLC RFO          ACCESS:      16358 HIT:       4869 MISS:      11489
LLC PREFETCH     ACCESS:          0 HIT:          0 MISS:          0
LLC WRITE        ACCESS:      36096 HIT:      35951 MISS:        145
LLC TRANSLATION  ACCESS:      17195 HIT:       3147 MISS:      14048
LLC PREFETCH REQUESTED:          0 ISSUED:          0 USEFUL:          0 USELESS:          0
LLC AVERAGE MISS LATENCY: 207.3 cycles
cpu0_DTLB TOTAL        ACCESS:  115878804 HIT:  115053129 MISS:     825675
cpu0_DTLB LOAD         ACCESS:  115878804 HIT:  115053129 MISS:     825675
cpu0_DTLB RFO          ACCESS:          0 HIT:          0 MISS:          0
cpu0_DTLB PREFETCH     ACCESS:          0 HIT:          0 MISS:          0
cpu0_DTLB WRITE        ACCESS:          0 HIT:          0 MISS:          0
cpu0_DTLB TRANSLATION  ACCESS:          0 HIT:          0 MISS:          0
cpu0_DTLB PREFETCH REQUESTED:          0 ISSUED:          0 USEFUL:          0 USELESS:          0
cpu0_DTLB AVERAGE MISS LATENCY: 8.966 cycles
cpu0_ITLB TOTAL        ACCESS:    6554070 HIT:    6365758 MISS:     188312
cpu0_ITLB LOAD         ACCESS:    6554070 HIT:    6365758 MISS:     188312
cpu0_ITLB RFO          ACCESS:          0 HIT:          0 MISS:          0
cpu0_ITLB PREFETCH     ACCESS:          0 HIT:          0 MISS:          0
cpu0_ITLB WRITE        ACCESS:          0 HIT:          0 MISS:          0
cpu0_ITLB TRANSLATION  ACCESS:          0 HIT:          0 MISS:          0
cpu0_ITLB PREFETCH REQUESTED:          0 ISSUED:          0 USEFUL:          0 USELESS:          0
cpu0_ITLB AVERAGE MISS LATENCY: 2.014 cycles
cpu0_L1D TOTAL        ACCESS:  165893697 HIT:  164740163 MISS:    1153534
cpu0_L1D LOAD         ACCESS:   63222686 HIT:   62255707 MISS:     966979
cpu0_L1D RFO          ACCESS:          0 HIT:          0 MISS:          0
cpu0_L1D PREFETCH     ACCESS:          0 HIT:          0 MISS:          0
cpu0_L1D WRITE        ACCESS:  102644191 HIT:  102482201 MISS:     161990
cpu0_L1D TRANSLATION  ACCESS:      26820 HIT:       2255 MISS:      24565
cpu0_L1D PREFETCH REQUESTED:          0 ISSUED:          0 USEFUL:          0 USELESS:          0
cpu0_L1D AVERAGE MISS LATENCY: 48.65 cycles
cpu0_L1I TOTAL        ACCESS:    7329950 HIT:    6168906 MISS:    1161044
cpu0_L1I LOAD         ACCESS:    7329950 HIT:    6168906 MISS:    1161044
cpu0_L1I RFO          ACCESS:          0 HIT:          0 MISS:          0
cpu0_L1I PREFETCH     ACCESS:          0 HIT:          0 MISS:          0
cpu0_L1I WRITE        ACCESS:          0 HIT:          0 MISS:          0
cpu0_L1I TRANSLATION  ACCESS:          0 HIT:          0 MISS:          0
cpu0_L1I PREFETCH REQUESTED:          0 ISSUED:          0 USEFUL:          0 USELESS:          0
cpu0_L1I AVERAGE MISS LATENCY: 9.224 cycles
cpu0_L2C TOTAL        ACCESS:    1565180 HIT:    1245908 MISS:     319272
cpu0_L2C LOAD         ACCESS:    1387046 HIT:    1101659 MISS:     285387
cpu0_L2C RFO          ACCESS:      48976 HIT:      32618 MISS:      16358
cpu0_L2C PREFETCH     ACCESS:          0 HIT:          0 MISS:          0
cpu0_L2C WRITE        ACCESS:     104662 HIT:     104330 MISS:        332
cpu0_L2C TRANSLATION  ACCESS:      24496 HIT:       7301 MISS:      17195
cpu0_L2C PREFETCH REQUESTED:          0 ISSUED:          0 USEFUL:          0 USELESS:          0
cpu0_L2C AVERAGE MISS LATENCY: 181.4 cycles
cpu0_STLB TOTAL        ACCESS:     627022 HIT:     603531 MISS:      23491
cpu0_STLB LOAD         ACCESS:     627022 HIT:     603531 MISS:      23491
cpu0_STLB RFO          ACCESS:          0 HIT:          0 MISS:          0
cpu0_STLB PREFETCH     ACCESS:          0 HIT:          0 MISS:          0
cpu0_STLB WRITE        ACCESS:          0 HIT:          0 MISS:          0
cpu0_STLB TRANSLATION  ACCESS:          0 HIT:          0 MISS:          0
cpu0_STLB PREFETCH REQUESTED:          0 ISSUED:          0 USEFUL:          0 USELESS:          0
cpu0_STLB AVERAGE MISS LATENCY: 171.8 cycles

DRAM Statistics

Channel 0 RQ ROW_BUFFER_HIT:      57907
  ROW_BUFFER_MISS:     189410
 AVG DBUS CONGESTED CYCLE: 3.82
WQ ROW_BUFFER_HIT: Channel 0 
  ROW_BUFFER_MISS:      10733
  FULL:      14752
