WARNING: physical memory size is smaller than virtual memory size.

*** ChampSim Multicore Out-of-Order Simulator ***
Warmup Instructions: 1000000000
Simulation Instructions: 500000000
Number of CPUs: 1
Page size: 4096

Off-chip DRAM Size: 4 GiB Channels: 1 Width: 64-bit Data Race: 3200 MT/s
Heartbeat CPU 0 instructions: 10000000 cycles: 2500066 heartbeat IPC: 4 cumulative IPC: 4 (Simulation time: 00 hr 00 min 16 sec)
Heartbeat CPU 0 instructions: 20000000 cycles: 5000066 heartbeat IPC: 4 cumulative IPC: 4 (Simulation time: 00 hr 00 min 33 sec)
Heartbeat CPU 0 instructions: 30000000 cycles: 7500066 heartbeat IPC: 4 cumulative IPC: 4 (Simulation time: 00 hr 00 min 51 sec)
Heartbeat CPU 0 instructions: 40000000 cycles: 10000066 heartbeat IPC: 4 cumulative IPC: 4 (Simulation time: 00 hr 01 min 09 sec)
Heartbeat CPU 0 instructions: 50000002 cycles: 12500110 heartbeat IPC: 4 cumulative IPC: 4 (Simulation time: 00 hr 01 min 28 sec)
Heartbeat CPU 0 instructions: 60000000 cycles: 15000213 heartbeat IPC: 4 cumulative IPC: 4 (Simulation time: 00 hr 01 min 48 sec)
Heartbeat CPU 0 instructions: 70000000 cycles: 17500213 heartbeat IPC: 4 cumulative IPC: 4 (Simulation time: 00 hr 02 min 08 sec)
Heartbeat CPU 0 instructions: 80000000 cycles: 20000213 heartbeat IPC: 4 cumulative IPC: 4 (Simulation time: 00 hr 02 min 28 sec)
Heartbeat CPU 0 instructions: 90000000 cycles: 22500213 heartbeat IPC: 4 cumulative IPC: 4 (Simulation time: 00 hr 02 min 48 sec)
Heartbeat CPU 0 instructions: 100000001 cycles: 25000527 heartbeat IPC: 3.999 cumulative IPC: 4 (Simulation time: 00 hr 03 min 08 sec)
Heartbeat CPU 0 instructions: 110000001 cycles: 27500527 heartbeat IPC: 4 cumulative IPC: 4 (Simulation time: 00 hr 03 min 29 sec)
Heartbeat CPU 0 instructions: 120000001 cycles: 30000527 heartbeat IPC: 4 cumulative IPC: 4 (Simulation time: 00 hr 03 min 48 sec)
Heartbeat CPU 0 instructions: 130000003 cycles: 32500574 heartbeat IPC: 4 cumulative IPC: 4 (Simulation time: 00 hr 04 min 09 sec)
Heartbeat CPU 0 instructions: 140000001 cycles: 35000620 heartbeat IPC: 4 cumulative IPC: 4 (Simulation time: 00 hr 04 min 29 sec)
Heartbeat CPU 0 instructions: 150000001 cycles: 37500620 heartbeat IPC: 4 cumulative IPC: 4 (Simulation time: 00 hr 04 min 49 sec)
Heartbeat CPU 0 instructions: 160000001 cycles: 40000620 heartbeat IPC: 4 cumulative IPC: 4 (Simulation time: 00 hr 05 min 09 sec)
Heartbeat CPU 0 instructions: 170000000 cycles: 42500952 heartbeat IPC: 3.999 cumulative IPC: 4 (Simulation time: 00 hr 05 min 29 sec)
Heartbeat CPU 0 instructions: 180000000 cycles: 45000952 heartbeat IPC: 4 cumulative IPC: 4 (Simulation time: 00 hr 05 min 50 sec)
Heartbeat CPU 0 instructions: 190000000 cycles: 47500952 heartbeat IPC: 4 cumulative IPC: 4 (Simulation time: 00 hr 06 min 10 sec)
Heartbeat CPU 0 instructions: 200000000 cycles: 50000983 heartbeat IPC: 4 cumulative IPC: 4 (Simulation time: 00 hr 06 min 30 sec)
Heartbeat CPU 0 instructions: 210000000 cycles: 52500983 heartbeat IPC: 4 cumulative IPC: 4 (Simulation time: 00 hr 06 min 50 sec)
Heartbeat CPU 0 instructions: 220000000 cycles: 55000983 heartbeat IPC: 4 cumulative IPC: 4 (Simulation time: 00 hr 07 min 11 sec)
Heartbeat CPU 0 instructions: 230000000 cycles: 57500983 heartbeat IPC: 4 cumulative IPC: 4 (Simulation time: 00 hr 07 min 31 sec)
Heartbeat CPU 0 instructions: 240000000 cycles: 60001142 heartbeat IPC: 4 cumulative IPC: 4 (Simulation time: 00 hr 08 min 08 sec)
Heartbeat CPU 0 instructions: 250000003 cycles: 62501321 heartbeat IPC: 4 cumulative IPC: 4 (Simulation time: 00 hr 08 min 46 sec)
Heartbeat CPU 0 instructions: 260000003 cycles: 65001321 heartbeat IPC: 4 cumulative IPC: 4 (Simulation time: 00 hr 09 min 24 sec)
Heartbeat CPU 0 instructions: 270000003 cycles: 67501321 heartbeat IPC: 4 cumulative IPC: 4 (Simulation time: 00 hr 10 min 03 sec)
Heartbeat CPU 0 instructions: 280000003 cycles: 70001321 heartbeat IPC: 4 cumulative IPC: 4 (Simulation time: 00 hr 10 min 41 sec)
Heartbeat CPU 0 instructions: 290000003 cycles: 72501461 heartbeat IPC: 4 cumulative IPC: 4 (Simulation time: 00 hr 11 min 19 sec)
Heartbeat CPU 0 instructions: 300000003 cycles: 75001461 heartbeat IPC: 4 cumulative IPC: 4 (Simulation time: 00 hr 11 min 57 sec)
Heartbeat CPU 0 instructions: 310000002 cycles: 77501654 heartbeat IPC: 4 cumulative IPC: 4 (Simulation time: 00 hr 12 min 35 sec)
Heartbeat CPU 0 instructions: 320000003 cycles: 80001903 heartbeat IPC: 4 cumulative IPC: 4 (Simulation time: 00 hr 13 min 14 sec)
Heartbeat CPU 0 instructions: 330000002 cycles: 82504534 heartbeat IPC: 3.996 cumulative IPC: 4 (Simulation time: 00 hr 13 min 53 sec)
Heartbeat CPU 0 instructions: 340000000 cycles: 85004653 heartbeat IPC: 4 cumulative IPC: 4 (Simulation time: 00 hr 14 min 32 sec)
Heartbeat CPU 0 instructions: 350000000 cycles: 87504653 heartbeat IPC: 4 cumulative IPC: 4 (Simulation time: 00 hr 15 min 10 sec)
Heartbeat CPU 0 instructions: 360000001 cycles: 90011938 heartbeat IPC: 3.988 cumulative IPC: 3.999 (Simulation time: 00 hr 15 min 48 sec)
Heartbeat CPU 0 instructions: 370000001 cycles: 92511938 heartbeat IPC: 4 cumulative IPC: 3.999 (Simulation time: 00 hr 16 min 27 sec)
Heartbeat CPU 0 instructions: 380000002 cycles: 95011951 heartbeat IPC: 4 cumulative IPC: 3.999 (Simulation time: 00 hr 17 min 06 sec)
Heartbeat CPU 0 instructions: 390000003 cycles: 97511965 heartbeat IPC: 4 cumulative IPC: 4 (Simulation time: 00 hr 17 min 44 sec)
Heartbeat CPU 0 instructions: 400000003 cycles: 100011965 heartbeat IPC: 4 cumulative IPC: 4 (Simulation time: 00 hr 18 min 23 sec)
Heartbeat CPU 0 instructions: 410000003 cycles: 102511965 heartbeat IPC: 4 cumulative IPC: 4 (Simulation time: 00 hr 19 min 01 sec)
Heartbeat CPU 0 instructions: 420000003 cycles: 105012016 heartbeat IPC: 4 cumulative IPC: 4 (Simulation time: 00 hr 19 min 40 sec)
Heartbeat CPU 0 instructions: 430000001 cycles: 107512057 heartbeat IPC: 4 cumulative IPC: 4 (Simulation time: 00 hr 20 min 19 sec)
Heartbeat CPU 0 instructions: 440000003 cycles: 110019376 heartbeat IPC: 3.988 cumulative IPC: 3.999 (Simulation time: 00 hr 20 min 58 sec)
Heartbeat CPU 0 instructions: 450000003 cycles: 112519376 heartbeat IPC: 4 cumulative IPC: 3.999 (Simulation time: 00 hr 21 min 37 sec)
Heartbeat CPU 0 instructions: 460000003 cycles: 115019376 heartbeat IPC: 4 cumulative IPC: 3.999 (Simulation time: 00 hr 22 min 16 sec)
Heartbeat CPU 0 instructions: 470000003 cycles: 117528273 heartbeat IPC: 3.986 cumulative IPC: 3.999 (Simulation time: 00 hr 22 min 55 sec)
Heartbeat CPU 0 instructions: 480000003 cycles: 120032126 heartbeat IPC: 3.994 cumulative IPC: 3.999 (Simulation time: 00 hr 23 min 34 sec)
Heartbeat CPU 0 instructions: 490000000 cycles: 122532387 heartbeat IPC: 4 cumulative IPC: 3.999 (Simulation time: 00 hr 24 min 14 sec)
Heartbeat CPU 0 instructions: 500000001 cycles: 125032535 heartbeat IPC: 4 cumulative IPC: 3.999 (Simulation time: 00 hr 24 min 53 sec)
Heartbeat CPU 0 instructions: 510000002 cycles: 127532994 heartbeat IPC: 3.999 cumulative IPC: 3.999 (Simulation time: 00 hr 25 min 33 sec)
Heartbeat CPU 0 instructions: 520000002 cycles: 130042248 heartbeat IPC: 3.985 cumulative IPC: 3.999 (Simulation time: 00 hr 26 min 15 sec)
Heartbeat CPU 0 instructions: 530000003 cycles: 132542617 heartbeat IPC: 3.999 cumulative IPC: 3.999 (Simulation time: 00 hr 26 min 57 sec)
Heartbeat CPU 0 instructions: 540000000 cycles: 135053293 heartbeat IPC: 3.983 cumulative IPC: 3.998 (Simulation time: 00 hr 27 min 38 sec)
Heartbeat CPU 0 instructions: 550000001 cycles: 137558313 heartbeat IPC: 3.992 cumulative IPC: 3.998 (Simulation time: 00 hr 28 min 18 sec)
Heartbeat CPU 0 instructions: 560000001 cycles: 140058313 heartbeat IPC: 4 cumulative IPC: 3.998 (Simulation time: 00 hr 28 min 57 sec)
Heartbeat CPU 0 instructions: 570000001 cycles: 142558313 heartbeat IPC: 4 cumulative IPC: 3.998 (Simulation time: 00 hr 29 min 36 sec)
Heartbeat CPU 0 instructions: 580000001 cycles: 145058313 heartbeat IPC: 4 cumulative IPC: 3.998 (Simulation time: 00 hr 30 min 14 sec)
Heartbeat CPU 0 instructions: 590000000 cycles: 147559110 heartbeat IPC: 3.999 cumulative IPC: 3.998 (Simulation time: 00 hr 30 min 53 sec)
Heartbeat CPU 0 instructions: 600000003 cycles: 150059874 heartbeat IPC: 3.999 cumulative IPC: 3.998 (Simulation time: 00 hr 31 min 33 sec)
Heartbeat CPU 0 instructions: 610000002 cycles: 152560985 heartbeat IPC: 3.998 cumulative IPC: 3.998 (Simulation time: 00 hr 32 min 13 sec)
Heartbeat CPU 0 instructions: 620000002 cycles: 155064670 heartbeat IPC: 3.994 cumulative IPC: 3.998 (Simulation time: 00 hr 32 min 54 sec)
Heartbeat CPU 0 instructions: 630000000 cycles: 157566087 heartbeat IPC: 3.998 cumulative IPC: 3.998 (Simulation time: 00 hr 33 min 33 sec)
Heartbeat CPU 0 instructions: 640000000 cycles: 160066226 heartbeat IPC: 4 cumulative IPC: 3.998 (Simulation time: 00 hr 34 min 13 sec)
Heartbeat CPU 0 instructions: 650000003 cycles: 162566614 heartbeat IPC: 3.999 cumulative IPC: 3.998 (Simulation time: 00 hr 34 min 54 sec)
Heartbeat CPU 0 instructions: 660000002 cycles: 165069114 heartbeat IPC: 3.996 cumulative IPC: 3.998 (Simulation time: 00 hr 35 min 34 sec)
Heartbeat CPU 0 instructions: 670000002 cycles: 167569230 heartbeat IPC: 4 cumulative IPC: 3.998 (Simulation time: 00 hr 36 min 13 sec)
Heartbeat CPU 0 instructions: 680000003 cycles: 170069418 heartbeat IPC: 4 cumulative IPC: 3.998 (Simulation time: 00 hr 36 min 53 sec)
Heartbeat CPU 0 instructions: 690000000 cycles: 172597892 heartbeat IPC: 3.955 cumulative IPC: 3.998 (Simulation time: 00 hr 37 min 34 sec)
Heartbeat CPU 0 instructions: 700000000 cycles: 175097892 heartbeat IPC: 4 cumulative IPC: 3.998 (Simulation time: 00 hr 38 min 12 sec)
Heartbeat CPU 0 instructions: 710000002 cycles: 177598097 heartbeat IPC: 4 cumulative IPC: 3.998 (Simulation time: 00 hr 38 min 50 sec)
Heartbeat CPU 0 instructions: 720000002 cycles: 180098273 heartbeat IPC: 4 cumulative IPC: 3.998 (Simulation time: 00 hr 39 min 28 sec)
Heartbeat CPU 0 instructions: 730000002 cycles: 182598273 heartbeat IPC: 4 cumulative IPC: 3.998 (Simulation time: 00 hr 40 min 06 sec)
Heartbeat CPU 0 instructions: 740000002 cycles: 185098273 heartbeat IPC: 4 cumulative IPC: 3.998 (Simulation time: 00 hr 40 min 45 sec)
Heartbeat CPU 0 instructions: 750000002 cycles: 187598716 heartbeat IPC: 3.999 cumulative IPC: 3.998 (Simulation time: 00 hr 41 min 23 sec)
Heartbeat CPU 0 instructions: 760000001 cycles: 190099113 heartbeat IPC: 3.999 cumulative IPC: 3.998 (Simulation time: 00 hr 42 min 01 sec)
Heartbeat CPU 0 instructions: 770000002 cycles: 192599239 heartbeat IPC: 4 cumulative IPC: 3.998 (Simulation time: 00 hr 42 min 39 sec)
Heartbeat CPU 0 instructions: 780000002 cycles: 195099239 heartbeat IPC: 4 cumulative IPC: 3.998 (Simulation time: 00 hr 43 min 18 sec)
Heartbeat CPU 0 instructions: 790000002 cycles: 197599609 heartbeat IPC: 3.999 cumulative IPC: 3.998 (Simulation time: 00 hr 43 min 56 sec)
Heartbeat CPU 0 instructions: 800000003 cycles: 200099915 heartbeat IPC: 4 cumulative IPC: 3.998 (Simulation time: 00 hr 44 min 34 sec)
Heartbeat CPU 0 instructions: 810000001 cycles: 202600667 heartbeat IPC: 3.999 cumulative IPC: 3.998 (Simulation time: 00 hr 45 min 12 sec)
Heartbeat CPU 0 instructions: 820000001 cycles: 205100667 heartbeat IPC: 4 cumulative IPC: 3.998 (Simulation time: 00 hr 45 min 50 sec)
Heartbeat CPU 0 instructions: 830000001 cycles: 207600667 heartbeat IPC: 4 cumulative IPC: 3.998 (Simulation time: 00 hr 46 min 28 sec)
Heartbeat CPU 0 instructions: 840000002 cycles: 210100846 heartbeat IPC: 4 cumulative IPC: 3.998 (Simulation time: 00 hr 47 min 06 sec)
Heartbeat CPU 0 instructions: 850000003 cycles: 212602322 heartbeat IPC: 3.998 cumulative IPC: 3.998 (Simulation time: 00 hr 47 min 44 sec)
Heartbeat CPU 0 instructions: 860000003 cycles: 215102322 heartbeat IPC: 4 cumulative IPC: 3.998 (Simulation time: 00 hr 48 min 22 sec)
Heartbeat CPU 0 instructions: 870000003 cycles: 217602322 heartbeat IPC: 4 cumulative IPC: 3.998 (Simulation time: 00 hr 49 min 00 sec)
Heartbeat CPU 0 instructions: 880000002 cycles: 220103174 heartbeat IPC: 3.999 cumulative IPC: 3.998 (Simulation time: 00 hr 49 min 38 sec)
Heartbeat CPU 0 instructions: 890000002 cycles: 222603174 heartbeat IPC: 4 cumulative IPC: 3.998 (Simulation time: 00 hr 50 min 17 sec)
Heartbeat CPU 0 instructions: 900000002 cycles: 225103423 heartbeat IPC: 4 cumulative IPC: 3.998 (Simulation time: 00 hr 50 min 56 sec)
Heartbeat CPU 0 instructions: 910000000 cycles: 227603817 heartbeat IPC: 3.999 cumulative IPC: 3.998 (Simulation time: 00 hr 51 min 35 sec)
Heartbeat CPU 0 instructions: 920000001 cycles: 230104214 heartbeat IPC: 3.999 cumulative IPC: 3.998 (Simulation time: 00 hr 52 min 14 sec)
Heartbeat CPU 0 instructions: 930000003 cycles: 232604468 heartbeat IPC: 4 cumulative IPC: 3.998 (Simulation time: 00 hr 52 min 53 sec)
Heartbeat CPU 0 instructions: 940000003 cycles: 235104468 heartbeat IPC: 4 cumulative IPC: 3.998 (Simulation time: 00 hr 53 min 33 sec)
Heartbeat CPU 0 instructions: 950000003 cycles: 237604815 heartbeat IPC: 3.999 cumulative IPC: 3.998 (Simulation time: 00 hr 54 min 12 sec)
Heartbeat CPU 0 instructions: 960000000 cycles: 240105585 heartbeat IPC: 3.999 cumulative IPC: 3.998 (Simulation time: 00 hr 54 min 51 sec)
Heartbeat CPU 0 instructions: 970000003 cycles: 242605635 heartbeat IPC: 4 cumulative IPC: 3.998 (Simulation time: 00 hr 55 min 30 sec)
Heartbeat CPU 0 instructions: 980000002 cycles: 245105639 heartbeat IPC: 4 cumulative IPC: 3.998 (Simulation time: 00 hr 56 min 09 sec)
Heartbeat CPU 0 instructions: 990000003 cycles: 247607163 heartbeat IPC: 3.998 cumulative IPC: 3.998 (Simulation time: 00 hr 56 min 48 sec)
Heartbeat CPU 0 instructions: 1000000003 cycles: 250107163 heartbeat IPC: 4 cumulative IPC: 3.998 (Simulation time: 00 hr 57 min 28 sec)
Warmup finished CPU 0 instructions: 1000000003 cycles: 250107164 cumulative IPC: 3.998 (Simulation time: 00 hr 57 min 28 sec)
Warmup complete CPU 0 instructions: 1000000003 cycles: 250107164 cumulative IPC: 3.998 (Simulation time: 00 hr 57 min 28 sec)
Heartbeat CPU 0 instructions: 1010000001 cycles: 253065427 heartbeat IPC: 3.38 cumulative IPC: 3.38 (Simulation time: 00 hr 58 min 14 sec)
Heartbeat CPU 0 instructions: 1020000003 cycles: 255951974 heartbeat IPC: 3.464 cumulative IPC: 3.422 (Simulation time: 00 hr 59 min 01 sec)
Heartbeat CPU 0 instructions: 1030000000 cycles: 258734544 heartbeat IPC: 3.594 cumulative IPC: 3.477 (Simulation time: 00 hr 59 min 46 sec)
Heartbeat CPU 0 instructions: 1040000000 cycles: 261568041 heartbeat IPC: 3.529 cumulative IPC: 3.49 (Simulation time: 01 hr 00 min 31 sec)
Heartbeat CPU 0 instructions: 1050000000 cycles: 264446731 heartbeat IPC: 3.474 cumulative IPC: 3.487 (Simulation time: 01 hr 01 min 16 sec)
Heartbeat CPU 0 instructions: 1060000001 cycles: 267399610 heartbeat IPC: 3.387 cumulative IPC: 3.47 (Simulation time: 01 hr 02 min 02 sec)
Heartbeat CPU 0 instructions: 1070000002 cycles: 270439322 heartbeat IPC: 3.29 cumulative IPC: 3.443 (Simulation time: 01 hr 02 min 48 sec)
Heartbeat CPU 0 instructions: 1080000003 cycles: 273347250 heartbeat IPC: 3.439 cumulative IPC: 3.442 (Simulation time: 01 hr 03 min 34 sec)
Heartbeat CPU 0 instructions: 1090000000 cycles: 276250844 heartbeat IPC: 3.444 cumulative IPC: 3.443 (Simulation time: 01 hr 04 min 20 sec)
Heartbeat CPU 0 instructions: 1100000000 cycles: 279007335 heartbeat IPC: 3.628 cumulative IPC: 3.46 (Simulation time: 01 hr 05 min 05 sec)
Heartbeat CPU 0 instructions: 1110000004 cycles: 281947996 heartbeat IPC: 3.401 cumulative IPC: 3.455 (Simulation time: 01 hr 05 min 50 sec)
Heartbeat CPU 0 instructions: 1120000000 cycles: 284827379 heartbeat IPC: 3.473 cumulative IPC: 3.456 (Simulation time: 01 hr 06 min 35 sec)
Heartbeat CPU 0 instructions: 1130000002 cycles: 287458199 heartbeat IPC: 3.801 cumulative IPC: 3.48 (Simulation time: 01 hr 07 min 20 sec)
Heartbeat CPU 0 instructions: 1140000001 cycles: 290498903 heartbeat IPC: 3.289 cumulative IPC: 3.466 (Simulation time: 01 hr 08 min 06 sec)
Heartbeat CPU 0 instructions: 1150000001 cycles: 293424606 heartbeat IPC: 3.418 cumulative IPC: 3.463 (Simulation time: 01 hr 08 min 51 sec)
Heartbeat CPU 0 instructions: 1160000000 cycles: 296310960 heartbeat IPC: 3.465 cumulative IPC: 3.463 (Simulation time: 01 hr 09 min 36 sec)
Heartbeat CPU 0 instructions: 1170000004 cycles: 299095542 heartbeat IPC: 3.591 cumulative IPC: 3.47 (Simulation time: 01 hr 10 min 20 sec)
Heartbeat CPU 0 instructions: 1180000004 cycles: 301912275 heartbeat IPC: 3.55 cumulative IPC: 3.475 (Simulation time: 01 hr 11 min 05 sec)
Heartbeat CPU 0 instructions: 1190000004 cycles: 304863098 heartbeat IPC: 3.389 cumulative IPC: 3.47 (Simulation time: 01 hr 11 min 50 sec)
Heartbeat CPU 0 instructions: 1200000000 cycles: 307611302 heartbeat IPC: 3.639 cumulative IPC: 3.478 (Simulation time: 01 hr 12 min 35 sec)
Heartbeat CPU 0 instructions: 1210000003 cycles: 310513821 heartbeat IPC: 3.445 cumulative IPC: 3.476 (Simulation time: 01 hr 13 min 21 sec)
Heartbeat CPU 0 instructions: 1220000001 cycles: 314405755 heartbeat IPC: 2.569 cumulative IPC: 3.422 (Simulation time: 01 hr 14 min 14 sec)
Heartbeat CPU 0 instructions: 1230000001 cycles: 318673035 heartbeat IPC: 2.343 cumulative IPC: 3.354 (Simulation time: 01 hr 15 min 10 sec)
Heartbeat CPU 0 instructions: 1240000000 cycles: 323831134 heartbeat IPC: 1.939 cumulative IPC: 3.255 (Simulation time: 01 hr 16 min 13 sec)
Heartbeat CPU 0 instructions: 1250000002 cycles: 329338105 heartbeat IPC: 1.816 cumulative IPC: 3.155 (Simulation time: 01 hr 17 min 19 sec)
Heartbeat CPU 0 instructions: 1260000002 cycles: 332436145 heartbeat IPC: 3.228 cumulative IPC: 3.158 (Simulation time: 01 hr 18 min 06 sec)
Heartbeat CPU 0 instructions: 1270000003 cycles: 335368508 heartbeat IPC: 3.41 cumulative IPC: 3.167 (Simulation time: 01 hr 18 min 52 sec)
Heartbeat CPU 0 instructions: 1280000001 cycles: 338457024 heartbeat IPC: 3.238 cumulative IPC: 3.169 (Simulation time: 01 hr 19 min 39 sec)
Heartbeat CPU 0 instructions: 1290000002 cycles: 341546905 heartbeat IPC: 3.236 cumulative IPC: 3.171 (Simulation time: 01 hr 20 min 26 sec)
Heartbeat CPU 0 instructions: 1300000001 cycles: 344633411 heartbeat IPC: 3.24 cumulative IPC: 3.174 (Simulation time: 01 hr 21 min 14 sec)
Heartbeat CPU 0 instructions: 1310000000 cycles: 347779455 heartbeat IPC: 3.179 cumulative IPC: 3.174 (Simulation time: 01 hr 22 min 02 sec)
Heartbeat CPU 0 instructions: 1320000003 cycles: 353495992 heartbeat IPC: 1.749 cumulative IPC: 3.095 (Simulation time: 01 hr 23 min 09 sec)
Heartbeat CPU 0 instructions: 1330000002 cycles: 359234018 heartbeat IPC: 1.743 cumulative IPC: 3.024 (Simulation time: 01 hr 24 min 13 sec)
Heartbeat CPU 0 instructions: 1340000002 cycles: 364339009 heartbeat IPC: 1.959 cumulative IPC: 2.976 (Simulation time: 01 hr 24 min 55 sec)
Heartbeat CPU 0 instructions: 1350000001 cycles: 367521092 heartbeat IPC: 3.143 cumulative IPC: 2.981 (Simulation time: 01 hr 25 min 24 sec)
Heartbeat CPU 0 instructions: 1360000001 cycles: 370747220 heartbeat IPC: 3.1 cumulative IPC: 2.984 (Simulation time: 01 hr 26 min 11 sec)
Heartbeat CPU 0 instructions: 1370000002 cycles: 373991482 heartbeat IPC: 3.082 cumulative IPC: 2.987 (Simulation time: 01 hr 26 min 52 sec)
Heartbeat CPU 0 instructions: 1380000000 cycles: 379728361 heartbeat IPC: 1.743 cumulative IPC: 2.932 (Simulation time: 01 hr 27 min 42 sec)
Heartbeat CPU 0 instructions: 1390000003 cycles: 385587090 heartbeat IPC: 1.707 cumulative IPC: 2.879 (Simulation time: 01 hr 28 min 30 sec)
Heartbeat CPU 0 instructions: 1400000001 cycles: 390181222 heartbeat IPC: 2.177 cumulative IPC: 2.856 (Simulation time: 01 hr 29 min 08 sec)
Heartbeat CPU 0 instructions: 1410000003 cycles: 393199595 heartbeat IPC: 3.313 cumulative IPC: 2.865 (Simulation time: 01 hr 29 min 36 sec)
Heartbeat CPU 0 instructions: 1420000002 cycles: 396151739 heartbeat IPC: 3.387 cumulative IPC: 2.876 (Simulation time: 01 hr 30 min 04 sec)
Heartbeat CPU 0 instructions: 1430000000 cycles: 399054181 heartbeat IPC: 3.445 cumulative IPC: 2.887 (Simulation time: 01 hr 30 min 34 sec)
Heartbeat CPU 0 instructions: 1440000002 cycles: 401929417 heartbeat IPC: 3.478 cumulative IPC: 2.898 (Simulation time: 01 hr 31 min 08 sec)
Heartbeat CPU 0 instructions: 1450000000 cycles: 404806392 heartbeat IPC: 3.476 cumulative IPC: 2.909 (Simulation time: 01 hr 31 min 44 sec)
Heartbeat CPU 0 instructions: 1460000000 cycles: 407718610 heartbeat IPC: 3.434 cumulative IPC: 2.919 (Simulation time: 01 hr 32 min 20 sec)
Heartbeat CPU 0 instructions: 1470000004 cycles: 410677956 heartbeat IPC: 3.379 cumulative IPC: 2.927 (Simulation time: 01 hr 32 min 46 sec)
Heartbeat CPU 0 instructions: 1480000002 cycles: 413616150 heartbeat IPC: 3.403 cumulative IPC: 2.936 (Simulation time: 01 hr 33 min 18 sec)
Heartbeat CPU 0 instructions: 1490000002 cycles: 416505352 heartbeat IPC: 3.461 cumulative IPC: 2.945 (Simulation time: 01 hr 33 min 46 sec)
Heartbeat CPU 0 instructions: 1500000001 cycles: 419517912 heartbeat IPC: 3.319 cumulative IPC: 2.951 (Simulation time: 01 hr 34 min 13 sec)
Simulation finished CPU 0 instructions: 500000003 cycles: 169410750 cumulative IPC: 2.951 (Simulation time: 01 hr 34 min 13 sec)
Simulation complete CPU 0 instructions: 500000003 cycles: 169410750 cumulative IPC: 2.951 (Simulation time: 01 hr 34 min 13 sec)

ChampSim completed all CPUs

=== Simulation ===
CPU 0 runs traces/600.perlbench_s-210B.champsimtrace.xz
Region of Interest Statistics

CPU 0 cumulative IPC: 2.951 instructions: 500000003 cycles: 169410750
CPU 0 Branch Prediction Accuracy: 98.25% MPKI: 2.634 Average ROB Occupancy at Mispredict: 90.31
Branch type MPKI
BRANCH_DIRECT_JUMP: 0.0578
BRANCH_INDIRECT: 0.296
BRANCH_CONDITIONAL: 2.1
BRANCH_DIRECT_CALL: 0.0136
BRANCH_INDIRECT_CALL: 0.154
BRANCH_RETURN: 0.0117

LLC TOTAL        ACCESS:     354720 HIT:     107265 MISS:     247455
LLC LOAD         ACCESS:     284928 HIT:      63151 MISS:     221777
LLC RFO          ACCESS:      16347 HIT:       4869 MISS:      11478
LLC PREFETCH     ACCESS:          0 HIT:          0 MISS:          0
LLC WRITE        ACCESS:      36249 HIT:      36099 MISS:        150
LLC TRANSLATION  ACCESS:      17196 HIT:       3146 MISS:      14050
LLC PREFETCH REQUESTED:          0 ISSUED:          0 USEFUL:          0 USELESS:          0
LLC AVERAGE MISS LATENCY: 212.7 cycles
cpu0_DTLB TOTAL        ACCESS:  115361873 HIT:  114532704 MISS:     829169
cpu0_DTLB LOAD         ACCESS:  115361873 HIT:  114532704 MISS:     829169
cpu0_DTLB RFO          ACCESS:          0 HIT:          0 MISS:          0
cpu0_DTLB PREFETCH     ACCESS:          0 HIT:          0 MISS:          0
cpu0_DTLB WRITE        ACCESS:          0 HIT:          0 MISS:          0
cpu0_DTLB TRANSLATION  ACCESS:          0 HIT:          0 MISS:          0
cpu0_DTLB PREFETCH REQUESTED:          0 ISSUED:          0 USEFUL:          0 USELESS:          0
cpu0_DTLB AVERAGE MISS LATENCY: 8.946 cycles
cpu0_ITLB TOTAL        ACCESS:    6567426 HIT:    6374155 MISS:     193271
cpu0_ITLB LOAD         ACCESS:    6567426 HIT:    6374155 MISS:     193271
cpu0_ITLB RFO          ACCESS:          0 HIT:          0 MISS:          0
cpu0_ITLB PREFETCH     ACCESS:          0 HIT:          0 MISS:          0
cpu0_ITLB WRITE        ACCESS:          0 HIT:          0 MISS:          0
cpu0_ITLB TRANSLATION  ACCESS:          0 HIT:          0 MISS:          0
cpu0_ITLB PREFETCH REQUESTED:          0 ISSUED:          0 USEFUL:          0 USELESS:          0
cpu0_ITLB AVERAGE MISS LATENCY: 1.893 cycles
cpu0_L1D TOTAL        ACCESS:  165406826 HIT:  164233205 MISS:    1173621
cpu0_L1D LOAD         ACCESS:   62705671 HIT:   61720824 MISS:     984847
cpu0_L1D RFO          ACCESS:          0 HIT:          0 MISS:          0
cpu0_L1D PREFETCH     ACCESS:          0 HIT:          0 MISS:          0
cpu0_L1D WRITE        ACCESS:  102674339 HIT:  102510128 MISS:     164211
cpu0_L1D TRANSLATION  ACCESS:      26816 HIT:       2253 MISS:      24563
cpu0_L1D PREFETCH REQUESTED:          0 ISSUED:          0 USEFUL:          0 USELESS:          0
cpu0_L1D AVERAGE MISS LATENCY: 48.67 cycles
cpu0_L1I TOTAL        ACCESS:    7347427 HIT:    6175103 MISS:    1172324
cpu0_L1I LOAD         ACCESS:    7347427 HIT:    6175103 MISS:    1172324
cpu0_L1I RFO          ACCESS:          0 HIT:          0 MISS:          0
cpu0_L1I PREFETCH     ACCESS:          0 HIT:          0 MISS:          0
cpu0_L1I WRITE        ACCESS:          0 HIT:          0 MISS:          0
cpu0_L1I TRANSLATION  ACCESS:          0 HIT:          0 MISS:          0
cpu0_L1I PREFETCH REQUESTED:          0 ISSUED:          0 USEFUL:          0 USELESS:          0
cpu0_L1I AVERAGE MISS LATENCY: 9.143 cycles
cpu0_L2C TOTAL        ACCESS:    1565851 HIT:    1247053 MISS:     318798
cpu0_L2C LOAD         ACCESS:    1387023 HIT:    1102095 MISS:     284928
cpu0_L2C RFO          ACCESS:      48913 HIT:      32566 MISS:      16347
cpu0_L2C PREFETCH     ACCESS:          0 HIT:          0 MISS:          0
cpu0_L2C WRITE        ACCESS:     105428 HIT:     105101 MISS:        327
cpu0_L2C TRANSLATION  ACCESS:      24487 HIT:       7291 MISS:      17196
cpu0_L2C PREFETCH REQUESTED:          0 ISSUED:          0 USEFUL:          0 USELESS:          0
cpu0_L2C AVERAGE MISS LATENCY: 185.9 cycles
cpu0_STLB TOTAL        ACCESS:     626347 HIT:     602860 MISS:      23487
cpu0_STLB LOAD         ACCESS:     626347 HIT:     602860 MISS:      23487
cpu0_STLB RFO          ACCESS:          0 HIT:          0 MISS:          0
cpu0_STLB PREFETCH     ACCESS:          0 HIT:          0 MISS:          0
cpu0_STLB WRITE        ACCESS:          0 HIT:          0 MISS:          0
cpu0_STLB TRANSLATION  ACCESS:          0 HIT:          0 MISS:          0
cpu0_STLB PREFETCH REQUESTED:          0 ISSUED:          0 USEFUL:          0 USELESS:          0
cpu0_STLB AVERAGE MISS LATENCY: 174.5 cycles

DRAM Statistics

Channel 0 RQ ROW_BUFFER_HIT:      56739
  ROW_BUFFER_MISS:     190553
 AVG DBUS CONGESTED CYCLE: 3.828
WQ ROW_BUFFER_HIT: Channel 0 
  ROW_BUFFER_MISS:       9981
  FULL:      15574
