WARNING: physical memory size is smaller than virtual memory size.

*** ChampSim Multicore Out-of-Order Simulator ***
Warmup Instructions: 0
Simulation Instructions: 10000000000
Number of CPUs: 1
Page size: 4096

Off-chip DRAM Size: 4 GiB Channels: 1 Width: 64-bit Data Race: 3200 MT/s
Warmup finished CPU 0 instructions: 0 cycles: 1 cumulative IPC: 0 (Simulation time: 00 hr 00 min 00 sec)
Warmup complete CPU 0 instructions: 0 cycles: 1 cumulative IPC: 0 (Simulation time: 00 hr 00 min 00 sec)
Heartbeat CPU 0 instructions: 10000004 cycles: 3237065 heartbeat IPC: 3.089 cumulative IPC: 3.089 (Simulation time: 00 hr 00 min 19 sec)
Heartbeat CPU 0 instructions: 20000001 cycles: 5948950 heartbeat IPC: 3.687 cumulative IPC: 3.362 (Simulation time: 00 hr 00 min 37 sec)
Heartbeat CPU 0 instructions: 30000004 cycles: 8661115 heartbeat IPC: 3.687 cumulative IPC: 3.464 (Simulation time: 00 hr 00 min 55 sec)
Heartbeat CPU 0 instructions: 40000002 cycles: 11481741 heartbeat IPC: 3.545 cumulative IPC: 3.484 (Simulation time: 00 hr 01 min 14 sec)
Heartbeat CPU 0 instructions: 50000004 cycles: 14243509 heartbeat IPC: 3.621 cumulative IPC: 3.51 (Simulation time: 00 hr 01 min 33 sec)
Heartbeat CPU 0 instructions: 60000002 cycles: 17201628 heartbeat IPC: 3.381 cumulative IPC: 3.488 (Simulation time: 00 hr 01 min 52 sec)
Heartbeat CPU 0 instructions: 70000002 cycles: 20052466 heartbeat IPC: 3.508 cumulative IPC: 3.491 (Simulation time: 00 hr 02 min 10 sec)
Heartbeat CPU 0 instructions: 80000002 cycles: 22895927 heartbeat IPC: 3.517 cumulative IPC: 3.494 (Simulation time: 00 hr 02 min 29 sec)
Heartbeat CPU 0 instructions: 90000003 cycles: 25792117 heartbeat IPC: 3.453 cumulative IPC: 3.489 (Simulation time: 00 hr 02 min 48 sec)
Heartbeat CPU 0 instructions: 100000001 cycles: 28558458 heartbeat IPC: 3.615 cumulative IPC: 3.502 (Simulation time: 00 hr 03 min 08 sec)
Heartbeat CPU 0 instructions: 110000000 cycles: 31216311 heartbeat IPC: 3.762 cumulative IPC: 3.524 (Simulation time: 00 hr 03 min 27 sec)
Heartbeat CPU 0 instructions: 120000000 cycles: 33762298 heartbeat IPC: 3.928 cumulative IPC: 3.554 (Simulation time: 00 hr 03 min 46 sec)
Heartbeat CPU 0 instructions: 130000000 cycles: 36634988 heartbeat IPC: 3.481 cumulative IPC: 3.549 (Simulation time: 00 hr 04 min 06 sec)
Heartbeat CPU 0 instructions: 140000001 cycles: 39543831 heartbeat IPC: 3.438 cumulative IPC: 3.54 (Simulation time: 00 hr 04 min 25 sec)
Heartbeat CPU 0 instructions: 150000002 cycles: 42603035 heartbeat IPC: 3.269 cumulative IPC: 3.521 (Simulation time: 00 hr 04 min 45 sec)
Heartbeat CPU 0 instructions: 160000003 cycles: 45343193 heartbeat IPC: 3.649 cumulative IPC: 3.529 (Simulation time: 00 hr 05 min 05 sec)
Heartbeat CPU 0 instructions: 170000002 cycles: 48224825 heartbeat IPC: 3.47 cumulative IPC: 3.525 (Simulation time: 00 hr 05 min 25 sec)
Heartbeat CPU 0 instructions: 180000004 cycles: 51153191 heartbeat IPC: 3.415 cumulative IPC: 3.519 (Simulation time: 00 hr 05 min 45 sec)
Heartbeat CPU 0 instructions: 190000003 cycles: 53810856 heartbeat IPC: 3.763 cumulative IPC: 3.531 (Simulation time: 00 hr 06 min 05 sec)
Heartbeat CPU 0 instructions: 200000001 cycles: 56801049 heartbeat IPC: 3.344 cumulative IPC: 3.521 (Simulation time: 00 hr 06 min 24 sec)
Heartbeat CPU 0 instructions: 210000002 cycles: 59727929 heartbeat IPC: 3.417 cumulative IPC: 3.516 (Simulation time: 00 hr 06 min 44 sec)
Heartbeat CPU 0 instructions: 220000002 cycles: 62614138 heartbeat IPC: 3.465 cumulative IPC: 3.514 (Simulation time: 00 hr 07 min 04 sec)
Heartbeat CPU 0 instructions: 230000002 cycles: 65415687 heartbeat IPC: 3.569 cumulative IPC: 3.516 (Simulation time: 00 hr 07 min 24 sec)
Heartbeat CPU 0 instructions: 240000003 cycles: 68244232 heartbeat IPC: 3.535 cumulative IPC: 3.517 (Simulation time: 00 hr 07 min 44 sec)
Heartbeat CPU 0 instructions: 250000003 cycles: 71163008 heartbeat IPC: 3.426 cumulative IPC: 3.513 (Simulation time: 00 hr 08 min 03 sec)
Heartbeat CPU 0 instructions: 260000000 cycles: 73988919 heartbeat IPC: 3.539 cumulative IPC: 3.514 (Simulation time: 00 hr 08 min 24 sec)
Heartbeat CPU 0 instructions: 270000001 cycles: 76760500 heartbeat IPC: 3.608 cumulative IPC: 3.517 (Simulation time: 00 hr 08 min 43 sec)
Heartbeat CPU 0 instructions: 280000002 cycles: 79495617 heartbeat IPC: 3.656 cumulative IPC: 3.522 (Simulation time: 00 hr 09 min 03 sec)
Heartbeat CPU 0 instructions: 290000004 cycles: 82303845 heartbeat IPC: 3.561 cumulative IPC: 3.524 (Simulation time: 00 hr 09 min 22 sec)
Heartbeat CPU 0 instructions: 300000002 cycles: 85248072 heartbeat IPC: 3.396 cumulative IPC: 3.519 (Simulation time: 00 hr 09 min 42 sec)
Heartbeat CPU 0 instructions: 310000001 cycles: 88213633 heartbeat IPC: 3.372 cumulative IPC: 3.514 (Simulation time: 00 hr 10 min 02 sec)
Heartbeat CPU 0 instructions: 320000001 cycles: 91088035 heartbeat IPC: 3.479 cumulative IPC: 3.513 (Simulation time: 00 hr 10 min 22 sec)
Heartbeat CPU 0 instructions: 330000001 cycles: 93937270 heartbeat IPC: 3.51 cumulative IPC: 3.513 (Simulation time: 00 hr 10 min 41 sec)
Heartbeat CPU 0 instructions: 340000004 cycles: 96756237 heartbeat IPC: 3.547 cumulative IPC: 3.514 (Simulation time: 00 hr 11 min 01 sec)
Heartbeat CPU 0 instructions: 350000000 cycles: 99593825 heartbeat IPC: 3.524 cumulative IPC: 3.514 (Simulation time: 00 hr 11 min 20 sec)
Heartbeat CPU 0 instructions: 360000001 cycles: 102488122 heartbeat IPC: 3.455 cumulative IPC: 3.513 (Simulation time: 00 hr 11 min 40 sec)
Heartbeat CPU 0 instructions: 370000004 cycles: 105179713 heartbeat IPC: 3.715 cumulative IPC: 3.518 (Simulation time: 00 hr 11 min 59 sec)
Heartbeat CPU 0 instructions: 380000002 cycles: 107922297 heartbeat IPC: 3.646 cumulative IPC: 3.521 (Simulation time: 00 hr 12 min 19 sec)
Heartbeat CPU 0 instructions: 390000001 cycles: 110798051 heartbeat IPC: 3.477 cumulative IPC: 3.52 (Simulation time: 00 hr 12 min 38 sec)
Heartbeat CPU 0 instructions: 400000003 cycles: 113623333 heartbeat IPC: 3.539 cumulative IPC: 3.52 (Simulation time: 00 hr 12 min 58 sec)
Heartbeat CPU 0 instructions: 410000000 cycles: 116417502 heartbeat IPC: 3.579 cumulative IPC: 3.522 (Simulation time: 00 hr 13 min 18 sec)
Heartbeat CPU 0 instructions: 420000001 cycles: 119210503 heartbeat IPC: 3.58 cumulative IPC: 3.523 (Simulation time: 00 hr 13 min 37 sec)
Heartbeat CPU 0 instructions: 430000001 cycles: 121993100 heartbeat IPC: 3.594 cumulative IPC: 3.525 (Simulation time: 00 hr 13 min 56 sec)
Heartbeat CPU 0 instructions: 440000002 cycles: 124872326 heartbeat IPC: 3.473 cumulative IPC: 3.524 (Simulation time: 00 hr 14 min 16 sec)
Heartbeat CPU 0 instructions: 450000003 cycles: 127551621 heartbeat IPC: 3.732 cumulative IPC: 3.528 (Simulation time: 00 hr 14 min 35 sec)
Heartbeat CPU 0 instructions: 460000001 cycles: 130430557 heartbeat IPC: 3.474 cumulative IPC: 3.527 (Simulation time: 00 hr 14 min 55 sec)
Heartbeat CPU 0 instructions: 470000000 cycles: 134938130 heartbeat IPC: 2.218 cumulative IPC: 3.483 (Simulation time: 00 hr 15 min 19 sec)
Heartbeat CPU 0 instructions: 480000003 cycles: 138736845 heartbeat IPC: 2.632 cumulative IPC: 3.46 (Simulation time: 00 hr 15 min 42 sec)
Heartbeat CPU 0 instructions: 490000003 cycles: 141723717 heartbeat IPC: 3.348 cumulative IPC: 3.457 (Simulation time: 00 hr 16 min 03 sec)
Heartbeat CPU 0 instructions: 500000004 cycles: 144774166 heartbeat IPC: 3.278 cumulative IPC: 3.454 (Simulation time: 00 hr 16 min 24 sec)
Heartbeat CPU 0 instructions: 510000001 cycles: 149776108 heartbeat IPC: 1.999 cumulative IPC: 3.405 (Simulation time: 00 hr 16 min 49 sec)
Heartbeat CPU 0 instructions: 520000000 cycles: 155651110 heartbeat IPC: 1.702 cumulative IPC: 3.341 (Simulation time: 00 hr 17 min 19 sec)
Heartbeat CPU 0 instructions: 530000002 cycles: 160157638 heartbeat IPC: 2.219 cumulative IPC: 3.309 (Simulation time: 00 hr 17 min 46 sec)
Heartbeat CPU 0 instructions: 540000001 cycles: 165223513 heartbeat IPC: 1.974 cumulative IPC: 3.268 (Simulation time: 00 hr 18 min 13 sec)
Heartbeat CPU 0 instructions: 550000001 cycles: 170992236 heartbeat IPC: 1.733 cumulative IPC: 3.217 (Simulation time: 00 hr 18 min 41 sec)
Heartbeat CPU 0 instructions: 560000004 cycles: 174097444 heartbeat IPC: 3.22 cumulative IPC: 3.217 (Simulation time: 00 hr 19 min 01 sec)
Heartbeat CPU 0 instructions: 570000001 cycles: 177109828 heartbeat IPC: 3.32 cumulative IPC: 3.218 (Simulation time: 00 hr 19 min 22 sec)
Heartbeat CPU 0 instructions: 580000000 cycles: 180210589 heartbeat IPC: 3.225 cumulative IPC: 3.218 (Simulation time: 00 hr 19 min 43 sec)
Heartbeat CPU 0 instructions: 590000000 cycles: 183323799 heartbeat IPC: 3.212 cumulative IPC: 3.218 (Simulation time: 00 hr 20 min 03 sec)
Heartbeat CPU 0 instructions: 600000000 cycles: 188338747 heartbeat IPC: 1.994 cumulative IPC: 3.186 (Simulation time: 00 hr 20 min 30 sec)
Heartbeat CPU 0 instructions: 610000002 cycles: 194212421 heartbeat IPC: 1.703 cumulative IPC: 3.141 (Simulation time: 00 hr 20 min 59 sec)
Heartbeat CPU 0 instructions: 620000002 cycles: 199875673 heartbeat IPC: 1.766 cumulative IPC: 3.102 (Simulation time: 00 hr 21 min 27 sec)
Heartbeat CPU 0 instructions: 630000001 cycles: 204124731 heartbeat IPC: 2.353 cumulative IPC: 3.086 (Simulation time: 00 hr 21 min 52 sec)
Heartbeat CPU 0 instructions: 640000004 cycles: 209023066 heartbeat IPC: 2.042 cumulative IPC: 3.062 (Simulation time: 00 hr 22 min 18 sec)
Heartbeat CPU 0 instructions: 650000002 cycles: 215078728 heartbeat IPC: 1.651 cumulative IPC: 3.022 (Simulation time: 00 hr 22 min 48 sec)
Heartbeat CPU 0 instructions: 660000004 cycles: 220668028 heartbeat IPC: 1.789 cumulative IPC: 2.991 (Simulation time: 00 hr 23 min 16 sec)
Heartbeat CPU 0 instructions: 670000002 cycles: 224307599 heartbeat IPC: 2.748 cumulative IPC: 2.987 (Simulation time: 00 hr 23 min 39 sec)
Heartbeat CPU 0 instructions: 680000002 cycles: 231218645 heartbeat IPC: 1.447 cumulative IPC: 2.941 (Simulation time: 00 hr 24 min 11 sec)
Heartbeat CPU 0 instructions: 690000002 cycles: 237002237 heartbeat IPC: 1.729 cumulative IPC: 2.911 (Simulation time: 00 hr 24 min 40 sec)
Heartbeat CPU 0 instructions: 700000000 cycles: 239882069 heartbeat IPC: 3.472 cumulative IPC: 2.918 (Simulation time: 00 hr 25 min 00 sec)
Heartbeat CPU 0 instructions: 710000002 cycles: 242677513 heartbeat IPC: 3.577 cumulative IPC: 2.926 (Simulation time: 00 hr 25 min 19 sec)
Heartbeat CPU 0 instructions: 720000002 cycles: 245526605 heartbeat IPC: 3.51 cumulative IPC: 2.932 (Simulation time: 00 hr 25 min 39 sec)
Heartbeat CPU 0 instructions: 730000000 cycles: 248606963 heartbeat IPC: 3.246 cumulative IPC: 2.936 (Simulation time: 00 hr 25 min 59 sec)
Heartbeat CPU 0 instructions: 740000001 cycles: 251614975 heartbeat IPC: 3.324 cumulative IPC: 2.941 (Simulation time: 00 hr 26 min 19 sec)
Heartbeat CPU 0 instructions: 750000001 cycles: 254465683 heartbeat IPC: 3.508 cumulative IPC: 2.947 (Simulation time: 00 hr 26 min 38 sec)
Heartbeat CPU 0 instructions: 760000000 cycles: 257447886 heartbeat IPC: 3.353 cumulative IPC: 2.952 (Simulation time: 00 hr 26 min 58 sec)
Heartbeat CPU 0 instructions: 770000003 cycles: 260271093 heartbeat IPC: 3.542 cumulative IPC: 2.958 (Simulation time: 00 hr 27 min 18 sec)
Heartbeat CPU 0 instructions: 780000001 cycles: 262949103 heartbeat IPC: 3.734 cumulative IPC: 2.966 (Simulation time: 00 hr 27 min 37 sec)
Heartbeat CPU 0 instructions: 790000001 cycles: 265802120 heartbeat IPC: 3.505 cumulative IPC: 2.972 (Simulation time: 00 hr 27 min 57 sec)
Heartbeat CPU 0 instructions: 800000003 cycles: 268467914 heartbeat IPC: 3.751 cumulative IPC: 2.98 (Simulation time: 00 hr 28 min 16 sec)
Heartbeat CPU 0 instructions: 810000000 cycles: 271448403 heartbeat IPC: 3.355 cumulative IPC: 2.984 (Simulation time: 00 hr 28 min 36 sec)
Heartbeat CPU 0 instructions: 820000001 cycles: 274272018 heartbeat IPC: 3.542 cumulative IPC: 2.99 (Simulation time: 00 hr 28 min 56 sec)
Heartbeat CPU 0 instructions: 830000004 cycles: 277103600 heartbeat IPC: 3.532 cumulative IPC: 2.995 (Simulation time: 00 hr 29 min 15 sec)
Heartbeat CPU 0 instructions: 840000000 cycles: 280054447 heartbeat IPC: 3.389 cumulative IPC: 2.999 (Simulation time: 00 hr 29 min 35 sec)
Heartbeat CPU 0 instructions: 850000000 cycles: 282938727 heartbeat IPC: 3.467 cumulative IPC: 3.004 (Simulation time: 00 hr 29 min 55 sec)
Heartbeat CPU 0 instructions: 860000004 cycles: 285609085 heartbeat IPC: 3.745 cumulative IPC: 3.011 (Simulation time: 00 hr 30 min 14 sec)
Heartbeat CPU 0 instructions: 870000001 cycles: 288219573 heartbeat IPC: 3.831 cumulative IPC: 3.019 (Simulation time: 00 hr 30 min 33 sec)
Heartbeat CPU 0 instructions: 880000001 cycles: 290981758 heartbeat IPC: 3.62 cumulative IPC: 3.024 (Simulation time: 00 hr 30 min 53 sec)
Heartbeat CPU 0 instructions: 890000000 cycles: 293808481 heartbeat IPC: 3.538 cumulative IPC: 3.029 (Simulation time: 00 hr 31 min 13 sec)
Heartbeat CPU 0 instructions: 900000003 cycles: 296767129 heartbeat IPC: 3.38 cumulative IPC: 3.033 (Simulation time: 00 hr 31 min 32 sec)
Heartbeat CPU 0 instructions: 910000003 cycles: 299552117 heartbeat IPC: 3.591 cumulative IPC: 3.038 (Simulation time: 00 hr 31 min 52 sec)
Heartbeat CPU 0 instructions: 920000000 cycles: 302361943 heartbeat IPC: 3.559 cumulative IPC: 3.043 (Simulation time: 00 hr 32 min 11 sec)
Heartbeat CPU 0 instructions: 930000003 cycles: 305246798 heartbeat IPC: 3.466 cumulative IPC: 3.047 (Simulation time: 00 hr 32 min 32 sec)
Heartbeat CPU 0 instructions: 940000001 cycles: 308085933 heartbeat IPC: 3.522 cumulative IPC: 3.051 (Simulation time: 00 hr 32 min 51 sec)
Heartbeat CPU 0 instructions: 950000002 cycles: 310828776 heartbeat IPC: 3.646 cumulative IPC: 3.056 (Simulation time: 00 hr 33 min 11 sec)
Heartbeat CPU 0 instructions: 960000004 cycles: 313754594 heartbeat IPC: 3.418 cumulative IPC: 3.06 (Simulation time: 00 hr 33 min 31 sec)
Heartbeat CPU 0 instructions: 970000001 cycles: 316681752 heartbeat IPC: 3.416 cumulative IPC: 3.063 (Simulation time: 00 hr 33 min 50 sec)
Heartbeat CPU 0 instructions: 980000002 cycles: 319623168 heartbeat IPC: 3.4 cumulative IPC: 3.066 (Simulation time: 00 hr 34 min 11 sec)
Heartbeat CPU 0 instructions: 990000000 cycles: 322505804 heartbeat IPC: 3.469 cumulative IPC: 3.07 (Simulation time: 00 hr 34 min 30 sec)
Heartbeat CPU 0 instructions: 1000000004 cycles: 325287028 heartbeat IPC: 3.596 cumulative IPC: 3.074 (Simulation time: 00 hr 34 min 50 sec)
Heartbeat CPU 0 instructions: 1010000002 cycles: 328218168 heartbeat IPC: 3.412 cumulative IPC: 3.077 (Simulation time: 00 hr 35 min 10 sec)
Heartbeat CPU 0 instructions: 1020000003 cycles: 331068971 heartbeat IPC: 3.508 cumulative IPC: 3.081 (Simulation time: 00 hr 35 min 30 sec)
Heartbeat CPU 0 instructions: 1030000000 cycles: 333832830 heartbeat IPC: 3.618 cumulative IPC: 3.085 (Simulation time: 00 hr 35 min 49 sec)
Heartbeat CPU 0 instructions: 1040000000 cycles: 336628383 heartbeat IPC: 3.577 cumulative IPC: 3.089 (Simulation time: 00 hr 36 min 09 sec)
Heartbeat CPU 0 instructions: 1050000000 cycles: 339471760 heartbeat IPC: 3.517 cumulative IPC: 3.093 (Simulation time: 00 hr 36 min 29 sec)
Heartbeat CPU 0 instructions: 1060000001 cycles: 342388413 heartbeat IPC: 3.429 cumulative IPC: 3.096 (Simulation time: 00 hr 36 min 48 sec)
Heartbeat CPU 0 instructions: 1070000000 cycles: 345381966 heartbeat IPC: 3.341 cumulative IPC: 3.098 (Simulation time: 00 hr 37 min 08 sec)
Heartbeat CPU 0 instructions: 1080000003 cycles: 348268981 heartbeat IPC: 3.464 cumulative IPC: 3.101 (Simulation time: 00 hr 37 min 28 sec)
Heartbeat CPU 0 instructions: 1090000000 cycles: 351172353 heartbeat IPC: 3.444 cumulative IPC: 3.104 (Simulation time: 00 hr 37 min 48 sec)
Heartbeat CPU 0 instructions: 1100000000 cycles: 353937315 heartbeat IPC: 3.617 cumulative IPC: 3.108 (Simulation time: 00 hr 38 min 08 sec)
Heartbeat CPU 0 instructions: 1110000004 cycles: 356859632 heartbeat IPC: 3.422 cumulative IPC: 3.11 (Simulation time: 00 hr 38 min 28 sec)
Heartbeat CPU 0 instructions: 1120000000 cycles: 359687618 heartbeat IPC: 3.536 cumulative IPC: 3.114 (Simulation time: 00 hr 38 min 47 sec)
Heartbeat CPU 0 instructions: 1130000002 cycles: 362311732 heartbeat IPC: 3.811 cumulative IPC: 3.119 (Simulation time: 00 hr 39 min 07 sec)
Heartbeat CPU 0 instructions: 1140000001 cycles: 365305672 heartbeat IPC: 3.34 cumulative IPC: 3.121 (Simulation time: 00 hr 39 min 27 sec)
Heartbeat CPU 0 instructions: 1150000000 cycles: 368186412 heartbeat IPC: 3.471 cumulative IPC: 3.123 (Simulation time: 00 hr 39 min 47 sec)
Heartbeat CPU 0 instructions: 1160000000 cycles: 371043212 heartbeat IPC: 3.5 cumulative IPC: 3.126 (Simulation time: 00 hr 40 min 06 sec)
Heartbeat CPU 0 instructions: 1170000004 cycles: 373794837 heartbeat IPC: 3.634 cumulative IPC: 3.13 (Simulation time: 00 hr 40 min 26 sec)
Heartbeat CPU 0 instructions: 1180000004 cycles: 376602557 heartbeat IPC: 3.562 cumulative IPC: 3.133 (Simulation time: 00 hr 40 min 45 sec)
Heartbeat CPU 0 instructions: 1190000004 cycles: 379528904 heartbeat IPC: 3.417 cumulative IPC: 3.135 (Simulation time: 00 hr 41 min 05 sec)
Heartbeat CPU 0 instructions: 1200000000 cycles: 382251981 heartbeat IPC: 3.672 cumulative IPC: 3.139 (Simulation time: 00 hr 41 min 24 sec)
Heartbeat CPU 0 instructions: 1210000003 cycles: 385117879 heartbeat IPC: 3.489 cumulative IPC: 3.142 (Simulation time: 00 hr 41 min 44 sec)
Heartbeat CPU 0 instructions: 1220000001 cycles: 388993631 heartbeat IPC: 2.58 cumulative IPC: 3.136 (Simulation time: 00 hr 42 min 07 sec)
Heartbeat CPU 0 instructions: 1230000001 cycles: 393264433 heartbeat IPC: 2.341 cumulative IPC: 3.128 (Simulation time: 00 hr 42 min 31 sec)
Heartbeat CPU 0 instructions: 1240000000 cycles: 398489521 heartbeat IPC: 1.914 cumulative IPC: 3.112 (Simulation time: 00 hr 42 min 59 sec)
Heartbeat CPU 0 instructions: 1250000002 cycles: 404023143 heartbeat IPC: 1.807 cumulative IPC: 3.094 (Simulation time: 00 hr 43 min 26 sec)
Heartbeat CPU 0 instructions: 1260000002 cycles: 407055637 heartbeat IPC: 3.298 cumulative IPC: 3.095 (Simulation time: 00 hr 43 min 47 sec)
Heartbeat CPU 0 instructions: 1270000003 cycles: 409962592 heartbeat IPC: 3.44 cumulative IPC: 3.098 (Simulation time: 00 hr 44 min 07 sec)
Heartbeat CPU 0 instructions: 1280000001 cycles: 412990154 heartbeat IPC: 3.303 cumulative IPC: 3.099 (Simulation time: 00 hr 44 min 27 sec)
Heartbeat CPU 0 instructions: 1290000002 cycles: 415992034 heartbeat IPC: 3.331 cumulative IPC: 3.101 (Simulation time: 00 hr 44 min 48 sec)
Heartbeat CPU 0 instructions: 1300000001 cycles: 419018064 heartbeat IPC: 3.305 cumulative IPC: 3.102 (Simulation time: 00 hr 45 min 08 sec)
Heartbeat CPU 0 instructions: 1310000000 cycles: 422081960 heartbeat IPC: 3.264 cumulative IPC: 3.104 (Simulation time: 00 hr 45 min 29 sec)
Heartbeat CPU 0 instructions: 1320000003 cycles: 427788478 heartbeat IPC: 1.752 cumulative IPC: 3.086 (Simulation time: 00 hr 45 min 58 sec)
Heartbeat CPU 0 instructions: 1330000002 cycles: 433622657 heartbeat IPC: 1.714 cumulative IPC: 3.067 (Simulation time: 00 hr 46 min 27 sec)
Heartbeat CPU 0 instructions: 1340000002 cycles: 438771484 heartbeat IPC: 1.942 cumulative IPC: 3.054 (Simulation time: 00 hr 46 min 54 sec)
Heartbeat CPU 0 instructions: 1350000001 cycles: 441924835 heartbeat IPC: 3.171 cumulative IPC: 3.055 (Simulation time: 00 hr 47 min 14 sec)
Heartbeat CPU 0 instructions: 1360000000 cycles: 445114126 heartbeat IPC: 3.135 cumulative IPC: 3.055 (Simulation time: 00 hr 47 min 35 sec)
Heartbeat CPU 0 instructions: 1370000002 cycles: 448316953 heartbeat IPC: 3.122 cumulative IPC: 3.056 (Simulation time: 00 hr 47 min 56 sec)
Heartbeat CPU 0 instructions: 1380000000 cycles: 454060042 heartbeat IPC: 1.741 cumulative IPC: 3.039 (Simulation time: 00 hr 48 min 26 sec)
Heartbeat CPU 0 instructions: 1390000003 cycles: 460033760 heartbeat IPC: 1.674 cumulative IPC: 3.022 (Simulation time: 00 hr 48 min 58 sec)
Heartbeat CPU 0 instructions: 1400000001 cycles: 464601368 heartbeat IPC: 2.189 cumulative IPC: 3.013 (Simulation time: 00 hr 49 min 24 sec)
Heartbeat CPU 0 instructions: 1410000003 cycles: 467561246 heartbeat IPC: 3.379 cumulative IPC: 3.016 (Simulation time: 00 hr 49 min 44 sec)
Heartbeat CPU 0 instructions: 1420000002 cycles: 470483649 heartbeat IPC: 3.422 cumulative IPC: 3.018 (Simulation time: 00 hr 50 min 04 sec)
Heartbeat CPU 0 instructions: 1430000001 cycles: 473380828 heartbeat IPC: 3.452 cumulative IPC: 3.021 (Simulation time: 00 hr 50 min 24 sec)
Heartbeat CPU 0 instructions: 1440000002 cycles: 476261775 heartbeat IPC: 3.471 cumulative IPC: 3.024 (Simulation time: 00 hr 50 min 44 sec)
Heartbeat CPU 0 instructions: 1450000000 cycles: 479108221 heartbeat IPC: 3.513 cumulative IPC: 3.026 (Simulation time: 00 hr 51 min 04 sec)
Heartbeat CPU 0 instructions: 1460000000 cycles: 482010893 heartbeat IPC: 3.445 cumulative IPC: 3.029 (Simulation time: 00 hr 51 min 24 sec)
Heartbeat CPU 0 instructions: 1470000004 cycles: 484938939 heartbeat IPC: 3.415 cumulative IPC: 3.031 (Simulation time: 00 hr 51 min 45 sec)
Heartbeat CPU 0 instructions: 1480000002 cycles: 487844639 heartbeat IPC: 3.442 cumulative IPC: 3.034 (Simulation time: 00 hr 52 min 05 sec)
Heartbeat CPU 0 instructions: 1490000002 cycles: 490706756 heartbeat IPC: 3.494 cumulative IPC: 3.036 (Simulation time: 00 hr 52 min 25 sec)
Heartbeat CPU 0 instructions: 1500000001 cycles: 493697425 heartbeat IPC: 3.344 cumulative IPC: 3.038 (Simulation time: 00 hr 52 min 45 sec)
Heartbeat CPU 0 instructions: 1510000001 cycles: 496584340 heartbeat IPC: 3.464 cumulative IPC: 3.041 (Simulation time: 00 hr 53 min 05 sec)
Heartbeat CPU 0 instructions: 1520000001 cycles: 499489465 heartbeat IPC: 3.442 cumulative IPC: 3.043 (Simulation time: 00 hr 53 min 25 sec)
Heartbeat CPU 0 instructions: 1530000003 cycles: 502346314 heartbeat IPC: 3.5 cumulative IPC: 3.046 (Simulation time: 00 hr 53 min 45 sec)
Heartbeat CPU 0 instructions: 1540000004 cycles: 506311618 heartbeat IPC: 2.522 cumulative IPC: 3.042 (Simulation time: 00 hr 54 min 10 sec)
Heartbeat CPU 0 instructions: 1550000001 cycles: 512023519 heartbeat IPC: 1.751 cumulative IPC: 3.027 (Simulation time: 00 hr 54 min 40 sec)
Heartbeat CPU 0 instructions: 1560000000 cycles: 517723568 heartbeat IPC: 1.754 cumulative IPC: 3.013 (Simulation time: 00 hr 55 min 10 sec)
Heartbeat CPU 0 instructions: 1570000000 cycles: 520853760 heartbeat IPC: 3.195 cumulative IPC: 3.014 (Simulation time: 00 hr 55 min 30 sec)
Heartbeat CPU 0 instructions: 1580000000 cycles: 523889985 heartbeat IPC: 3.294 cumulative IPC: 3.016 (Simulation time: 00 hr 55 min 50 sec)
Heartbeat CPU 0 instructions: 1590000000 cycles: 527042750 heartbeat IPC: 3.172 cumulative IPC: 3.017 (Simulation time: 00 hr 56 min 11 sec)
Heartbeat CPU 0 instructions: 1600000003 cycles: 530167766 heartbeat IPC: 3.2 cumulative IPC: 3.018 (Simulation time: 00 hr 56 min 32 sec)
Heartbeat CPU 0 instructions: 1610000000 cycles: 536543891 heartbeat IPC: 1.568 cumulative IPC: 3.001 (Simulation time: 00 hr 57 min 03 sec)
Heartbeat CPU 0 instructions: 1620000001 cycles: 541503451 heartbeat IPC: 2.016 cumulative IPC: 2.992 (Simulation time: 00 hr 57 min 29 sec)
Heartbeat CPU 0 instructions: 1630000002 cycles: 546176355 heartbeat IPC: 2.14 cumulative IPC: 2.984 (Simulation time: 00 hr 57 min 55 sec)
Heartbeat CPU 0 instructions: 1640000002 cycles: 549208046 heartbeat IPC: 3.298 cumulative IPC: 2.986 (Simulation time: 00 hr 58 min 16 sec)
Heartbeat CPU 0 instructions: 1650000003 cycles: 552165530 heartbeat IPC: 3.381 cumulative IPC: 2.988 (Simulation time: 00 hr 58 min 38 sec)
Heartbeat CPU 0 instructions: 1660000001 cycles: 555210289 heartbeat IPC: 3.284 cumulative IPC: 2.99 (Simulation time: 00 hr 58 min 59 sec)
Heartbeat CPU 0 instructions: 1670000001 cycles: 558206671 heartbeat IPC: 3.337 cumulative IPC: 2.992 (Simulation time: 00 hr 59 min 21 sec)
Heartbeat CPU 0 instructions: 1680000000 cycles: 561263936 heartbeat IPC: 3.271 cumulative IPC: 2.993 (Simulation time: 00 hr 59 min 42 sec)
Heartbeat CPU 0 instructions: 1690000004 cycles: 564254456 heartbeat IPC: 3.344 cumulative IPC: 2.995 (Simulation time: 01 hr 00 min 04 sec)
Heartbeat CPU 0 instructions: 1700000003 cycles: 569994487 heartbeat IPC: 1.742 cumulative IPC: 2.982 (Simulation time: 01 hr 00 min 33 sec)
Heartbeat CPU 0 instructions: 1710000000 cycles: 575887403 heartbeat IPC: 1.697 cumulative IPC: 2.969 (Simulation time: 01 hr 01 min 02 sec)
Heartbeat CPU 0 instructions: 1720000003 cycles: 580367734 heartbeat IPC: 2.232 cumulative IPC: 2.964 (Simulation time: 01 hr 01 min 27 sec)
Heartbeat CPU 0 instructions: 1730000000 cycles: 583578312 heartbeat IPC: 3.115 cumulative IPC: 2.964 (Simulation time: 01 hr 01 min 48 sec)
Heartbeat CPU 0 instructions: 1740000002 cycles: 587234016 heartbeat IPC: 2.735 cumulative IPC: 2.963 (Simulation time: 01 hr 02 min 11 sec)
Heartbeat CPU 0 instructions: 1750000001 cycles: 593685205 heartbeat IPC: 1.55 cumulative IPC: 2.948 (Simulation time: 01 hr 02 min 42 sec)
Heartbeat CPU 0 instructions: 1760000004 cycles: 599375546 heartbeat IPC: 1.757 cumulative IPC: 2.936 (Simulation time: 01 hr 03 min 10 sec)
Heartbeat CPU 0 instructions: 1770000000 cycles: 602602835 heartbeat IPC: 3.099 cumulative IPC: 2.937 (Simulation time: 01 hr 03 min 31 sec)
Heartbeat CPU 0 instructions: 1780000002 cycles: 605901603 heartbeat IPC: 3.031 cumulative IPC: 2.938 (Simulation time: 01 hr 03 min 53 sec)
Heartbeat CPU 0 instructions: 1790000004 cycles: 610131099 heartbeat IPC: 2.364 cumulative IPC: 2.934 (Simulation time: 01 hr 04 min 18 sec)
Heartbeat CPU 0 instructions: 1800000004 cycles: 616465603 heartbeat IPC: 1.579 cumulative IPC: 2.92 (Simulation time: 01 hr 04 min 49 sec)
Heartbeat CPU 0 instructions: 1810000002 cycles: 622229894 heartbeat IPC: 1.735 cumulative IPC: 2.909 (Simulation time: 01 hr 05 min 18 sec)
Heartbeat CPU 0 instructions: 1820000001 cycles: 625075284 heartbeat IPC: 3.514 cumulative IPC: 2.912 (Simulation time: 01 hr 05 min 38 sec)
Heartbeat CPU 0 instructions: 1830000001 cycles: 628046869 heartbeat IPC: 3.365 cumulative IPC: 2.914 (Simulation time: 01 hr 05 min 58 sec)
Heartbeat CPU 0 instructions: 1840000001 cycles: 630931860 heartbeat IPC: 3.466 cumulative IPC: 2.916 (Simulation time: 01 hr 06 min 18 sec)
Heartbeat CPU 0 instructions: 1850000000 cycles: 633919353 heartbeat IPC: 3.347 cumulative IPC: 2.918 (Simulation time: 01 hr 06 min 39 sec)
Heartbeat CPU 0 instructions: 1860000003 cycles: 636648693 heartbeat IPC: 3.664 cumulative IPC: 2.922 (Simulation time: 01 hr 06 min 58 sec)
Heartbeat CPU 0 instructions: 1870000004 cycles: 639429606 heartbeat IPC: 3.596 cumulative IPC: 2.924 (Simulation time: 01 hr 07 min 18 sec)
Heartbeat CPU 0 instructions: 1880000004 cycles: 642381206 heartbeat IPC: 3.388 cumulative IPC: 2.927 (Simulation time: 01 hr 07 min 38 sec)
Heartbeat CPU 0 instructions: 1890000003 cycles: 645312434 heartbeat IPC: 3.412 cumulative IPC: 2.929 (Simulation time: 01 hr 07 min 57 sec)
Heartbeat CPU 0 instructions: 1900000001 cycles: 648141352 heartbeat IPC: 3.535 cumulative IPC: 2.931 (Simulation time: 01 hr 08 min 17 sec)
Heartbeat CPU 0 instructions: 1910000003 cycles: 650768575 heartbeat IPC: 3.806 cumulative IPC: 2.935 (Simulation time: 01 hr 08 min 37 sec)
Heartbeat CPU 0 instructions: 1920000000 cycles: 653705959 heartbeat IPC: 3.404 cumulative IPC: 2.937 (Simulation time: 01 hr 08 min 57 sec)
Heartbeat CPU 0 instructions: 1930000002 cycles: 656532905 heartbeat IPC: 3.537 cumulative IPC: 2.94 (Simulation time: 01 hr 09 min 16 sec)
Heartbeat CPU 0 instructions: 1940000002 cycles: 659414327 heartbeat IPC: 3.471 cumulative IPC: 2.942 (Simulation time: 01 hr 09 min 36 sec)
Heartbeat CPU 0 instructions: 1950000002 cycles: 662216063 heartbeat IPC: 3.569 cumulative IPC: 2.945 (Simulation time: 01 hr 09 min 56 sec)
Heartbeat CPU 0 instructions: 1960000001 cycles: 665175129 heartbeat IPC: 3.379 cumulative IPC: 2.947 (Simulation time: 01 hr 10 min 16 sec)
Heartbeat CPU 0 instructions: 1970000001 cycles: 668091141 heartbeat IPC: 3.429 cumulative IPC: 2.949 (Simulation time: 01 hr 10 min 36 sec)
Heartbeat CPU 0 instructions: 1980000003 cycles: 670940302 heartbeat IPC: 3.51 cumulative IPC: 2.951 (Simulation time: 01 hr 10 min 56 sec)
Heartbeat CPU 0 instructions: 1990000001 cycles: 673834150 heartbeat IPC: 3.456 cumulative IPC: 2.953 (Simulation time: 01 hr 11 min 16 sec)
*** Reached end of trace: (0, "traces/600.perlbench_s-210B.champsimtrace.xz")
Heartbeat CPU 0 instructions: 2000000004 cycles: 676626972 heartbeat IPC: 3.581 cumulative IPC: 2.956 (Simulation time: 01 hr 11 min 36 sec)
Heartbeat CPU 0 instructions: 2010000003 cycles: 679632535 heartbeat IPC: 3.327 cumulative IPC: 2.957 (Simulation time: 01 hr 11 min 56 sec)
Heartbeat CPU 0 instructions: 2020000000 cycles: 682333824 heartbeat IPC: 3.702 cumulative IPC: 2.96 (Simulation time: 01 hr 12 min 15 sec)
Heartbeat CPU 0 instructions: 2030000003 cycles: 685031499 heartbeat IPC: 3.707 cumulative IPC: 2.963 (Simulation time: 01 hr 12 min 34 sec)
Heartbeat CPU 0 instructions: 2040000001 cycles: 687825662 heartbeat IPC: 3.579 cumulative IPC: 2.966 (Simulation time: 01 hr 12 min 54 sec)
Heartbeat CPU 0 instructions: 2050000003 cycles: 690571473 heartbeat IPC: 3.642 cumulative IPC: 2.969 (Simulation time: 01 hr 13 min 14 sec)
Heartbeat CPU 0 instructions: 2060000001 cycles: 693503800 heartbeat IPC: 3.41 cumulative IPC: 2.97 (Simulation time: 01 hr 13 min 34 sec)
Heartbeat CPU 0 instructions: 2070000001 cycles: 696317635 heartbeat IPC: 3.554 cumulative IPC: 2.973 (Simulation time: 01 hr 13 min 53 sec)
Heartbeat CPU 0 instructions: 2080000001 cycles: 699119118 heartbeat IPC: 3.57 cumulative IPC: 2.975 (Simulation time: 01 hr 14 min 12 sec)
Heartbeat CPU 0 instructions: 2090000002 cycles: 702012415 heartbeat IPC: 3.456 cumulative IPC: 2.977 (Simulation time: 01 hr 14 min 32 sec)
Heartbeat CPU 0 instructions: 2100000000 cycles: 704755626 heartbeat IPC: 3.645 cumulative IPC: 2.98 (Simulation time: 01 hr 14 min 52 sec)
Heartbeat CPU 0 instructions: 2110000004 cycles: 707403427 heartbeat IPC: 3.777 cumulative IPC: 2.983 (Simulation time: 01 hr 15 min 11 sec)
Heartbeat CPU 0 instructions: 2120000004 cycles: 709944871 heartbeat IPC: 3.935 cumulative IPC: 2.986 (Simulation time: 01 hr 15 min 31 sec)
Heartbeat CPU 0 instructions: 2130000004 cycles: 712776763 heartbeat IPC: 3.531 cumulative IPC: 2.988 (Simulation time: 01 hr 15 min 50 sec)
Heartbeat CPU 0 instructions: 2140000000 cycles: 715649332 heartbeat IPC: 3.481 cumulative IPC: 2.99 (Simulation time: 01 hr 16 min 10 sec)
Heartbeat CPU 0 instructions: 2150000001 cycles: 718585427 heartbeat IPC: 3.406 cumulative IPC: 2.992 (Simulation time: 01 hr 16 min 31 sec)
Heartbeat CPU 0 instructions: 2160000002 cycles: 721324806 heartbeat IPC: 3.65 cumulative IPC: 2.994 (Simulation time: 01 hr 16 min 50 sec)
Heartbeat CPU 0 instructions: 2170000001 cycles: 724174657 heartbeat IPC: 3.509 cumulative IPC: 2.997 (Simulation time: 01 hr 17 min 10 sec)
Heartbeat CPU 0 instructions: 2180000003 cycles: 727098401 heartbeat IPC: 3.42 cumulative IPC: 2.998 (Simulation time: 01 hr 17 min 30 sec)
Heartbeat CPU 0 instructions: 2190000002 cycles: 729738887 heartbeat IPC: 3.787 cumulative IPC: 3.001 (Simulation time: 01 hr 17 min 50 sec)
Heartbeat CPU 0 instructions: 2200000000 cycles: 732700380 heartbeat IPC: 3.377 cumulative IPC: 3.003 (Simulation time: 01 hr 18 min 10 sec)
Heartbeat CPU 0 instructions: 2210000001 cycles: 735595794 heartbeat IPC: 3.454 cumulative IPC: 3.004 (Simulation time: 01 hr 18 min 30 sec)
Heartbeat CPU 0 instructions: 2220000001 cycles: 738462404 heartbeat IPC: 3.488 cumulative IPC: 3.006 (Simulation time: 01 hr 18 min 50 sec)
Heartbeat CPU 0 instructions: 2230000001 cycles: 741247961 heartbeat IPC: 3.59 cumulative IPC: 3.008 (Simulation time: 01 hr 19 min 10 sec)
Heartbeat CPU 0 instructions: 2240000002 cycles: 744049163 heartbeat IPC: 3.57 cumulative IPC: 3.011 (Simulation time: 01 hr 19 min 30 sec)
Heartbeat CPU 0 instructions: 2250000002 cycles: 746959056 heartbeat IPC: 3.437 cumulative IPC: 3.012 (Simulation time: 01 hr 19 min 50 sec)
Heartbeat CPU 0 instructions: 2260000004 cycles: 749759392 heartbeat IPC: 3.571 cumulative IPC: 3.014 (Simulation time: 01 hr 20 min 09 sec)
Heartbeat CPU 0 instructions: 2270000000 cycles: 752519502 heartbeat IPC: 3.623 cumulative IPC: 3.017 (Simulation time: 01 hr 20 min 29 sec)
Heartbeat CPU 0 instructions: 2280000001 cycles: 755250453 heartbeat IPC: 3.662 cumulative IPC: 3.019 (Simulation time: 01 hr 20 min 48 sec)
Heartbeat CPU 0 instructions: 2290000003 cycles: 758051391 heartbeat IPC: 3.57 cumulative IPC: 3.021 (Simulation time: 01 hr 21 min 08 sec)
Heartbeat CPU 0 instructions: 2300000001 cycles: 761003034 heartbeat IPC: 3.388 cumulative IPC: 3.022 (Simulation time: 01 hr 21 min 29 sec)
Heartbeat CPU 0 instructions: 2310000000 cycles: 763956926 heartbeat IPC: 3.385 cumulative IPC: 3.024 (Simulation time: 01 hr 21 min 48 sec)
Heartbeat CPU 0 instructions: 2320000000 cycles: 766833624 heartbeat IPC: 3.476 cumulative IPC: 3.025 (Simulation time: 01 hr 22 min 08 sec)
Heartbeat CPU 0 instructions: 2330000000 cycles: 769705377 heartbeat IPC: 3.482 cumulative IPC: 3.027 (Simulation time: 01 hr 22 min 29 sec)
Heartbeat CPU 0 instructions: 2340000003 cycles: 772526577 heartbeat IPC: 3.545 cumulative IPC: 3.029 (Simulation time: 01 hr 22 min 49 sec)
Heartbeat CPU 0 instructions: 2350000001 cycles: 775360333 heartbeat IPC: 3.529 cumulative IPC: 3.031 (Simulation time: 01 hr 23 min 08 sec)
Heartbeat CPU 0 instructions: 2360000000 cycles: 778253738 heartbeat IPC: 3.456 cumulative IPC: 3.032 (Simulation time: 01 hr 23 min 28 sec)
Heartbeat CPU 0 instructions: 2370000003 cycles: 780945604 heartbeat IPC: 3.715 cumulative IPC: 3.035 (Simulation time: 01 hr 23 min 48 sec)
Heartbeat CPU 0 instructions: 2380000001 cycles: 783688443 heartbeat IPC: 3.646 cumulative IPC: 3.037 (Simulation time: 01 hr 24 min 07 sec)
Heartbeat CPU 0 instructions: 2390000000 cycles: 786565745 heartbeat IPC: 3.475 cumulative IPC: 3.039 (Simulation time: 01 hr 24 min 28 sec)
Heartbeat CPU 0 instructions: 2400000002 cycles: 789391226 heartbeat IPC: 3.539 cumulative IPC: 3.04 (Simulation time: 01 hr 24 min 47 sec)
Heartbeat CPU 0 instructions: 2410000000 cycles: 792191372 heartbeat IPC: 3.571 cumulative IPC: 3.042 (Simulation time: 01 hr 25 min 07 sec)
Heartbeat CPU 0 instructions: 2420000000 cycles: 794985204 heartbeat IPC: 3.579 cumulative IPC: 3.044 (Simulation time: 01 hr 25 min 26 sec)
Heartbeat CPU 0 instructions: 2430000000 cycles: 797764815 heartbeat IPC: 3.598 cumulative IPC: 3.046 (Simulation time: 01 hr 25 min 46 sec)
Heartbeat CPU 0 instructions: 2440000001 cycles: 800644250 heartbeat IPC: 3.473 cumulative IPC: 3.048 (Simulation time: 01 hr 26 min 06 sec)
Heartbeat CPU 0 instructions: 2450000002 cycles: 803324861 heartbeat IPC: 3.73 cumulative IPC: 3.05 (Simulation time: 01 hr 26 min 25 sec)
Heartbeat CPU 0 instructions: 2460000000 cycles: 806207192 heartbeat IPC: 3.469 cumulative IPC: 3.051 (Simulation time: 01 hr 26 min 45 sec)
Heartbeat CPU 0 instructions: 2470000000 cycles: 810354115 heartbeat IPC: 2.411 cumulative IPC: 3.048 (Simulation time: 01 hr 27 min 09 sec)
Heartbeat CPU 0 instructions: 2480000002 cycles: 814038839 heartbeat IPC: 2.714 cumulative IPC: 3.047 (Simulation time: 01 hr 27 min 32 sec)
Heartbeat CPU 0 instructions: 2490000002 cycles: 817016175 heartbeat IPC: 3.359 cumulative IPC: 3.048 (Simulation time: 01 hr 27 min 52 sec)
Heartbeat CPU 0 instructions: 2500000003 cycles: 820067552 heartbeat IPC: 3.277 cumulative IPC: 3.049 (Simulation time: 01 hr 28 min 13 sec)
Heartbeat CPU 0 instructions: 2510000000 cycles: 824764179 heartbeat IPC: 2.129 cumulative IPC: 3.043 (Simulation time: 01 hr 28 min 38 sec)
Heartbeat CPU 0 instructions: 2520000000 cycles: 830435916 heartbeat IPC: 1.763 cumulative IPC: 3.035 (Simulation time: 01 hr 29 min 07 sec)
Heartbeat CPU 0 instructions: 2530000001 cycles: 835031854 heartbeat IPC: 2.176 cumulative IPC: 3.03 (Simulation time: 01 hr 29 min 34 sec)
Heartbeat CPU 0 instructions: 2540000000 cycles: 839785799 heartbeat IPC: 2.104 cumulative IPC: 3.025 (Simulation time: 01 hr 30 min 00 sec)
Heartbeat CPU 0 instructions: 2550000000 cycles: 845329797 heartbeat IPC: 1.804 cumulative IPC: 3.017 (Simulation time: 01 hr 30 min 28 sec)
Heartbeat CPU 0 instructions: 2560000003 cycles: 848428172 heartbeat IPC: 3.227 cumulative IPC: 3.017 (Simulation time: 01 hr 30 min 49 sec)
Heartbeat CPU 0 instructions: 2570000000 cycles: 851450137 heartbeat IPC: 3.309 cumulative IPC: 3.018 (Simulation time: 01 hr 31 min 09 sec)
Heartbeat CPU 0 instructions: 2580000003 cycles: 854550490 heartbeat IPC: 3.225 cumulative IPC: 3.019 (Simulation time: 01 hr 31 min 30 sec)
Heartbeat CPU 0 instructions: 2590000004 cycles: 857661860 heartbeat IPC: 3.214 cumulative IPC: 3.02 (Simulation time: 01 hr 31 min 51 sec)
Heartbeat CPU 0 instructions: 2600000004 cycles: 862574909 heartbeat IPC: 2.035 cumulative IPC: 3.014 (Simulation time: 01 hr 32 min 18 sec)
Heartbeat CPU 0 instructions: 2610000001 cycles: 868292332 heartbeat IPC: 1.749 cumulative IPC: 3.006 (Simulation time: 01 hr 32 min 46 sec)
Heartbeat CPU 0 instructions: 2620000001 cycles: 873846312 heartbeat IPC: 1.801 cumulative IPC: 2.998 (Simulation time: 01 hr 33 min 14 sec)
Heartbeat CPU 0 instructions: 2630000000 cycles: 878129390 heartbeat IPC: 2.335 cumulative IPC: 2.995 (Simulation time: 01 hr 33 min 39 sec)
Heartbeat CPU 0 instructions: 2640000003 cycles: 883031800 heartbeat IPC: 2.04 cumulative IPC: 2.99 (Simulation time: 01 hr 34 min 06 sec)
Heartbeat CPU 0 instructions: 2650000001 cycles: 888993670 heartbeat IPC: 1.677 cumulative IPC: 2.981 (Simulation time: 01 hr 34 min 35 sec)
Heartbeat CPU 0 instructions: 2660000003 cycles: 894568542 heartbeat IPC: 1.794 cumulative IPC: 2.974 (Simulation time: 01 hr 35 min 03 sec)
Heartbeat CPU 0 instructions: 2670000001 cycles: 898205810 heartbeat IPC: 2.749 cumulative IPC: 2.973 (Simulation time: 01 hr 35 min 26 sec)
Heartbeat CPU 0 instructions: 2680000001 cycles: 905057690 heartbeat IPC: 1.459 cumulative IPC: 2.961 (Simulation time: 01 hr 35 min 58 sec)
Heartbeat CPU 0 instructions: 2690000001 cycles: 910831570 heartbeat IPC: 1.732 cumulative IPC: 2.953 (Simulation time: 01 hr 36 min 27 sec)
Heartbeat CPU 0 instructions: 2700000004 cycles: 913713424 heartbeat IPC: 3.47 cumulative IPC: 2.955 (Simulation time: 01 hr 36 min 46 sec)
Heartbeat CPU 0 instructions: 2710000001 cycles: 916509416 heartbeat IPC: 3.577 cumulative IPC: 2.957 (Simulation time: 01 hr 37 min 06 sec)
Heartbeat CPU 0 instructions: 2720000001 cycles: 919356713 heartbeat IPC: 3.512 cumulative IPC: 2.959 (Simulation time: 01 hr 37 min 26 sec)
Heartbeat CPU 0 instructions: 2730000003 cycles: 922358551 heartbeat IPC: 3.331 cumulative IPC: 2.96 (Simulation time: 01 hr 37 min 46 sec)
Heartbeat CPU 0 instructions: 2740000000 cycles: 925230807 heartbeat IPC: 3.482 cumulative IPC: 2.961 (Simulation time: 01 hr 38 min 05 sec)
Heartbeat CPU 0 instructions: 2750000000 cycles: 928081718 heartbeat IPC: 3.508 cumulative IPC: 2.963 (Simulation time: 01 hr 38 min 25 sec)
Heartbeat CPU 0 instructions: 2760000001 cycles: 931064655 heartbeat IPC: 3.352 cumulative IPC: 2.964 (Simulation time: 01 hr 38 min 45 sec)
Heartbeat CPU 0 instructions: 2770000002 cycles: 933889168 heartbeat IPC: 3.54 cumulative IPC: 2.966 (Simulation time: 01 hr 39 min 05 sec)
Heartbeat CPU 0 instructions: 2780000000 cycles: 936566967 heartbeat IPC: 3.734 cumulative IPC: 2.968 (Simulation time: 01 hr 39 min 24 sec)
Heartbeat CPU 0 instructions: 2790000000 cycles: 939422076 heartbeat IPC: 3.502 cumulative IPC: 2.97 (Simulation time: 01 hr 39 min 44 sec)
Heartbeat CPU 0 instructions: 2800000002 cycles: 942087308 heartbeat IPC: 3.752 cumulative IPC: 2.972 (Simulation time: 01 hr 40 min 03 sec)
Heartbeat CPU 0 instructions: 2810000004 cycles: 945067704 heartbeat IPC: 3.355 cumulative IPC: 2.973 (Simulation time: 01 hr 40 min 24 sec)
Heartbeat CPU 0 instructions: 2820000000 cycles: 947962508 heartbeat IPC: 3.454 cumulative IPC: 2.975 (Simulation time: 01 hr 40 min 43 sec)
Heartbeat CPU 0 instructions: 2830000003 cycles: 950837972 heartbeat IPC: 3.478 cumulative IPC: 2.976 (Simulation time: 01 hr 41 min 03 sec)
Heartbeat CPU 0 instructions: 2840000000 cycles: 953792826 heartbeat IPC: 3.384 cumulative IPC: 2.978 (Simulation time: 01 hr 41 min 22 sec)
Heartbeat CPU 0 instructions: 2850000002 cycles: 956677407 heartbeat IPC: 3.467 cumulative IPC: 2.979 (Simulation time: 01 hr 41 min 42 sec)
Heartbeat CPU 0 instructions: 2860000003 cycles: 959347539 heartbeat IPC: 3.745 cumulative IPC: 2.981 (Simulation time: 01 hr 42 min 01 sec)
Heartbeat CPU 0 instructions: 2870000000 cycles: 961957453 heartbeat IPC: 3.832 cumulative IPC: 2.983 (Simulation time: 01 hr 42 min 21 sec)
Heartbeat CPU 0 instructions: 2880000000 cycles: 964720253 heartbeat IPC: 3.62 cumulative IPC: 2.985 (Simulation time: 01 hr 42 min 40 sec)
Heartbeat CPU 0 instructions: 2890000004 cycles: 967553010 heartbeat IPC: 3.53 cumulative IPC: 2.987 (Simulation time: 01 hr 43 min 00 sec)
Heartbeat CPU 0 instructions: 2900000002 cycles: 970508909 heartbeat IPC: 3.383 cumulative IPC: 2.988 (Simulation time: 01 hr 43 min 20 sec)
Heartbeat CPU 0 instructions: 2910000002 cycles: 973293462 heartbeat IPC: 3.591 cumulative IPC: 2.99 (Simulation time: 01 hr 43 min 40 sec)
Heartbeat CPU 0 instructions: 2920000004 cycles: 976103704 heartbeat IPC: 3.558 cumulative IPC: 2.991 (Simulation time: 01 hr 43 min 59 sec)
Heartbeat CPU 0 instructions: 2930000002 cycles: 978997520 heartbeat IPC: 3.456 cumulative IPC: 2.993 (Simulation time: 01 hr 44 min 19 sec)
Heartbeat CPU 0 instructions: 2940000000 cycles: 981843134 heartbeat IPC: 3.514 cumulative IPC: 2.994 (Simulation time: 01 hr 44 min 39 sec)
Heartbeat CPU 0 instructions: 2950000001 cycles: 984610194 heartbeat IPC: 3.614 cumulative IPC: 2.996 (Simulation time: 01 hr 44 min 59 sec)
Heartbeat CPU 0 instructions: 2960000003 cycles: 987536664 heartbeat IPC: 3.417 cumulative IPC: 2.997 (Simulation time: 01 hr 45 min 19 sec)
Heartbeat CPU 0 instructions: 2970000000 cycles: 990463846 heartbeat IPC: 3.416 cumulative IPC: 2.999 (Simulation time: 01 hr 45 min 39 sec)
Heartbeat CPU 0 instructions: 2980000001 cycles: 993407547 heartbeat IPC: 3.397 cumulative IPC: 3 (Simulation time: 01 hr 45 min 59 sec)
Heartbeat CPU 0 instructions: 2990000004 cycles: 996291772 heartbeat IPC: 3.467 cumulative IPC: 3.001 (Simulation time: 01 hr 46 min 18 sec)
Heartbeat CPU 0 instructions: 3000000003 cycles: 999074686 heartbeat IPC: 3.593 cumulative IPC: 3.003 (Simulation time: 01 hr 46 min 38 sec)
Heartbeat CPU 0 instructions: 3010000001 cycles: 1002006524 heartbeat IPC: 3.411 cumulative IPC: 3.004 (Simulation time: 01 hr 46 min 58 sec)
Heartbeat CPU 0 instructions: 3020000002 cycles: 1004857348 heartbeat IPC: 3.508 cumulative IPC: 3.005 (Simulation time: 01 hr 47 min 18 sec)
Heartbeat CPU 0 instructions: 3030000000 cycles: 1007621910 heartbeat IPC: 3.617 cumulative IPC: 3.007 (Simulation time: 01 hr 47 min 37 sec)
Heartbeat CPU 0 instructions: 3040000004 cycles: 1010418278 heartbeat IPC: 3.576 cumulative IPC: 3.009 (Simulation time: 01 hr 47 min 57 sec)
Heartbeat CPU 0 instructions: 3050000000 cycles: 1013260650 heartbeat IPC: 3.518 cumulative IPC: 3.01 (Simulation time: 01 hr 48 min 17 sec)
Heartbeat CPU 0 instructions: 3060000000 cycles: 1016185233 heartbeat IPC: 3.419 cumulative IPC: 3.011 (Simulation time: 01 hr 48 min 37 sec)
Heartbeat CPU 0 instructions: 3070000000 cycles: 1019178649 heartbeat IPC: 3.341 cumulative IPC: 3.012 (Simulation time: 01 hr 48 min 57 sec)
Heartbeat CPU 0 instructions: 3080000002 cycles: 1022065554 heartbeat IPC: 3.464 cumulative IPC: 3.014 (Simulation time: 01 hr 49 min 16 sec)
Heartbeat CPU 0 instructions: 3090000004 cycles: 1024969244 heartbeat IPC: 3.444 cumulative IPC: 3.015 (Simulation time: 01 hr 49 min 37 sec)
Heartbeat CPU 0 instructions: 3100000000 cycles: 1027734182 heartbeat IPC: 3.617 cumulative IPC: 3.016 (Simulation time: 01 hr 49 min 56 sec)
Heartbeat CPU 0 instructions: 3110000003 cycles: 1030656823 heartbeat IPC: 3.422 cumulative IPC: 3.017 (Simulation time: 01 hr 50 min 16 sec)
Heartbeat CPU 0 instructions: 3120000000 cycles: 1033485159 heartbeat IPC: 3.536 cumulative IPC: 3.019 (Simulation time: 01 hr 50 min 36 sec)
Heartbeat CPU 0 instructions: 3130000001 cycles: 1036109033 heartbeat IPC: 3.811 cumulative IPC: 3.021 (Simulation time: 01 hr 50 min 55 sec)
Heartbeat CPU 0 instructions: 3140000000 cycles: 1039102223 heartbeat IPC: 3.341 cumulative IPC: 3.022 (Simulation time: 01 hr 51 min 15 sec)
Heartbeat CPU 0 instructions: 3150000004 cycles: 1041983898 heartbeat IPC: 3.47 cumulative IPC: 3.023 (Simulation time: 01 hr 51 min 35 sec)
Heartbeat CPU 0 instructions: 3160000004 cycles: 1044842349 heartbeat IPC: 3.498 cumulative IPC: 3.024 (Simulation time: 01 hr 51 min 54 sec)
Heartbeat CPU 0 instructions: 3170000003 cycles: 1047594754 heartbeat IPC: 3.633 cumulative IPC: 3.026 (Simulation time: 01 hr 52 min 14 sec)
Heartbeat CPU 0 instructions: 3180000003 cycles: 1050402051 heartbeat IPC: 3.562 cumulative IPC: 3.027 (Simulation time: 01 hr 52 min 33 sec)
Heartbeat CPU 0 instructions: 3190000003 cycles: 1053325994 heartbeat IPC: 3.42 cumulative IPC: 3.029 (Simulation time: 01 hr 52 min 53 sec)
Heartbeat CPU 0 instructions: 3200000004 cycles: 1056049235 heartbeat IPC: 3.672 cumulative IPC: 3.03 (Simulation time: 01 hr 53 min 12 sec)
Heartbeat CPU 0 instructions: 3210000002 cycles: 1058919017 heartbeat IPC: 3.485 cumulative IPC: 3.031 (Simulation time: 01 hr 53 min 33 sec)
Heartbeat CPU 0 instructions: 3220000001 cycles: 1062786020 heartbeat IPC: 2.586 cumulative IPC: 3.03 (Simulation time: 01 hr 53 min 56 sec)
Heartbeat CPU 0 instructions: 3230000000 cycles: 1067036137 heartbeat IPC: 2.353 cumulative IPC: 3.027 (Simulation time: 01 hr 54 min 22 sec)
Heartbeat CPU 0 instructions: 3240000002 cycles: 1072225385 heartbeat IPC: 1.927 cumulative IPC: 3.022 (Simulation time: 01 hr 54 min 49 sec)
Heartbeat CPU 0 instructions: 3250000001 cycles: 1077725538 heartbeat IPC: 1.818 cumulative IPC: 3.016 (Simulation time: 01 hr 55 min 17 sec)
Heartbeat CPU 0 instructions: 3260000001 cycles: 1080755244 heartbeat IPC: 3.301 cumulative IPC: 3.016 (Simulation time: 01 hr 55 min 38 sec)
Heartbeat CPU 0 instructions: 3270000002 cycles: 1083660014 heartbeat IPC: 3.443 cumulative IPC: 3.018 (Simulation time: 01 hr 55 min 58 sec)
Heartbeat CPU 0 instructions: 3280000000 cycles: 1086684205 heartbeat IPC: 3.307 cumulative IPC: 3.018 (Simulation time: 01 hr 56 min 18 sec)
Heartbeat CPU 0 instructions: 3290000001 cycles: 1089684684 heartbeat IPC: 3.333 cumulative IPC: 3.019 (Simulation time: 01 hr 56 min 39 sec)
Heartbeat CPU 0 instructions: 3300000000 cycles: 1092709790 heartbeat IPC: 3.306 cumulative IPC: 3.02 (Simulation time: 01 hr 57 min 00 sec)
Heartbeat CPU 0 instructions: 3310000002 cycles: 1095767726 heartbeat IPC: 3.27 cumulative IPC: 3.021 (Simulation time: 01 hr 57 min 20 sec)
Heartbeat CPU 0 instructions: 3320000002 cycles: 1101451118 heartbeat IPC: 1.76 cumulative IPC: 3.014 (Simulation time: 01 hr 57 min 49 sec)
Heartbeat CPU 0 instructions: 3330000001 cycles: 1107246726 heartbeat IPC: 1.725 cumulative IPC: 3.007 (Simulation time: 01 hr 58 min 20 sec)
Heartbeat CPU 0 instructions: 3340000001 cycles: 1112366940 heartbeat IPC: 1.953 cumulative IPC: 3.003 (Simulation time: 01 hr 58 min 48 sec)
Heartbeat CPU 0 instructions: 3350000000 cycles: 1115533655 heartbeat IPC: 3.158 cumulative IPC: 3.003 (Simulation time: 01 hr 59 min 10 sec)
Heartbeat CPU 0 instructions: 3360000004 cycles: 1118737685 heartbeat IPC: 3.121 cumulative IPC: 3.003 (Simulation time: 01 hr 59 min 32 sec)
Heartbeat CPU 0 instructions: 3370000001 cycles: 1121956632 heartbeat IPC: 3.107 cumulative IPC: 3.004 (Simulation time: 01 hr 59 min 54 sec)
Heartbeat CPU 0 instructions: 3380000002 cycles: 1127687767 heartbeat IPC: 1.745 cumulative IPC: 2.997 (Simulation time: 02 hr 00 min 24 sec)
Heartbeat CPU 0 instructions: 3390000002 cycles: 1133626850 heartbeat IPC: 1.684 cumulative IPC: 2.99 (Simulation time: 02 hr 00 min 54 sec)
Heartbeat CPU 0 instructions: 3400000000 cycles: 1138191153 heartbeat IPC: 2.191 cumulative IPC: 2.987 (Simulation time: 02 hr 01 min 20 sec)
Heartbeat CPU 0 instructions: 3410000002 cycles: 1141141991 heartbeat IPC: 3.389 cumulative IPC: 2.988 (Simulation time: 02 hr 01 min 40 sec)
Heartbeat CPU 0 instructions: 3420000001 cycles: 1144065266 heartbeat IPC: 3.421 cumulative IPC: 2.989 (Simulation time: 02 hr 02 min 00 sec)
Heartbeat CPU 0 instructions: 3430000000 cycles: 1146955113 heartbeat IPC: 3.46 cumulative IPC: 2.991 (Simulation time: 02 hr 02 min 20 sec)
Heartbeat CPU 0 instructions: 3440000001 cycles: 1149835792 heartbeat IPC: 3.471 cumulative IPC: 2.992 (Simulation time: 02 hr 02 min 40 sec)
Heartbeat CPU 0 instructions: 3450000003 cycles: 1152683034 heartbeat IPC: 3.512 cumulative IPC: 2.993 (Simulation time: 02 hr 03 min 00 sec)
Heartbeat CPU 0 instructions: 3460000000 cycles: 1155586863 heartbeat IPC: 3.444 cumulative IPC: 2.994 (Simulation time: 02 hr 03 min 20 sec)
Heartbeat CPU 0 instructions: 3470000003 cycles: 1158519754 heartbeat IPC: 3.41 cumulative IPC: 2.995 (Simulation time: 02 hr 03 min 40 sec)
Heartbeat CPU 0 instructions: 3480000001 cycles: 1161426792 heartbeat IPC: 3.44 cumulative IPC: 2.996 (Simulation time: 02 hr 04 min 00 sec)
Heartbeat CPU 0 instructions: 3490000001 cycles: 1164290189 heartbeat IPC: 3.492 cumulative IPC: 2.998 (Simulation time: 02 hr 04 min 20 sec)
Heartbeat CPU 0 instructions: 3500000000 cycles: 1167281018 heartbeat IPC: 3.344 cumulative IPC: 2.998 (Simulation time: 02 hr 04 min 40 sec)
Heartbeat CPU 0 instructions: 3510000000 cycles: 1170168869 heartbeat IPC: 3.463 cumulative IPC: 3 (Simulation time: 02 hr 05 min 01 sec)
Heartbeat CPU 0 instructions: 3520000000 cycles: 1173076525 heartbeat IPC: 3.439 cumulative IPC: 3.001 (Simulation time: 02 hr 05 min 21 sec)
Heartbeat CPU 0 instructions: 3530000002 cycles: 1175933808 heartbeat IPC: 3.5 cumulative IPC: 3.002 (Simulation time: 02 hr 05 min 41 sec)
Heartbeat CPU 0 instructions: 3540000003 cycles: 1179891491 heartbeat IPC: 2.527 cumulative IPC: 3 (Simulation time: 02 hr 06 min 04 sec)
Heartbeat CPU 0 instructions: 3550000000 cycles: 1185586470 heartbeat IPC: 1.756 cumulative IPC: 2.994 (Simulation time: 02 hr 06 min 33 sec)
Heartbeat CPU 0 instructions: 3560000004 cycles: 1191275310 heartbeat IPC: 1.758 cumulative IPC: 2.988 (Simulation time: 02 hr 07 min 02 sec)
Heartbeat CPU 0 instructions: 3570000004 cycles: 1194405870 heartbeat IPC: 3.194 cumulative IPC: 2.989 (Simulation time: 02 hr 07 min 23 sec)
Heartbeat CPU 0 instructions: 3580000002 cycles: 1197442233 heartbeat IPC: 3.293 cumulative IPC: 2.99 (Simulation time: 02 hr 07 min 43 sec)
Heartbeat CPU 0 instructions: 3590000004 cycles: 1200592611 heartbeat IPC: 3.174 cumulative IPC: 2.99 (Simulation time: 02 hr 08 min 05 sec)
Heartbeat CPU 0 instructions: 3600000002 cycles: 1203713496 heartbeat IPC: 3.204 cumulative IPC: 2.991 (Simulation time: 02 hr 08 min 27 sec)
Heartbeat CPU 0 instructions: 3610000001 cycles: 1210071622 heartbeat IPC: 1.573 cumulative IPC: 2.983 (Simulation time: 02 hr 08 min 57 sec)
Heartbeat CPU 0 instructions: 3620000000 cycles: 1215021274 heartbeat IPC: 2.02 cumulative IPC: 2.979 (Simulation time: 02 hr 09 min 23 sec)
Heartbeat CPU 0 instructions: 3630000001 cycles: 1219699766 heartbeat IPC: 2.137 cumulative IPC: 2.976 (Simulation time: 02 hr 09 min 49 sec)
Heartbeat CPU 0 instructions: 3640000001 cycles: 1222730246 heartbeat IPC: 3.3 cumulative IPC: 2.977 (Simulation time: 02 hr 10 min 10 sec)
Heartbeat CPU 0 instructions: 3650000002 cycles: 1225680587 heartbeat IPC: 3.389 cumulative IPC: 2.978 (Simulation time: 02 hr 10 min 30 sec)
Heartbeat CPU 0 instructions: 3660000000 cycles: 1228729338 heartbeat IPC: 3.28 cumulative IPC: 2.979 (Simulation time: 02 hr 10 min 50 sec)
Heartbeat CPU 0 instructions: 3670000000 cycles: 1231727012 heartbeat IPC: 3.336 cumulative IPC: 2.98 (Simulation time: 02 hr 11 min 11 sec)
Heartbeat CPU 0 instructions: 3680000004 cycles: 1234781648 heartbeat IPC: 3.274 cumulative IPC: 2.98 (Simulation time: 02 hr 11 min 32 sec)
Heartbeat CPU 0 instructions: 3690000003 cycles: 1237773738 heartbeat IPC: 3.342 cumulative IPC: 2.981 (Simulation time: 02 hr 11 min 52 sec)
Heartbeat CPU 0 instructions: 3700000002 cycles: 1243507859 heartbeat IPC: 1.744 cumulative IPC: 2.975 (Simulation time: 02 hr 12 min 21 sec)
Heartbeat CPU 0 instructions: 3710000000 cycles: 1249384095 heartbeat IPC: 1.702 cumulative IPC: 2.969 (Simulation time: 02 hr 12 min 50 sec)
Heartbeat CPU 0 instructions: 3720000002 cycles: 1253860147 heartbeat IPC: 2.234 cumulative IPC: 2.967 (Simulation time: 02 hr 13 min 15 sec)
Heartbeat CPU 0 instructions: 3730000004 cycles: 1257069141 heartbeat IPC: 3.116 cumulative IPC: 2.967 (Simulation time: 02 hr 13 min 36 sec)
Heartbeat CPU 0 instructions: 3740000001 cycles: 1260719847 heartbeat IPC: 2.739 cumulative IPC: 2.967 (Simulation time: 02 hr 13 min 58 sec)
Heartbeat CPU 0 instructions: 3750000000 cycles: 1267153506 heartbeat IPC: 1.554 cumulative IPC: 2.959 (Simulation time: 02 hr 14 min 30 sec)
Heartbeat CPU 0 instructions: 3760000003 cycles: 1272836803 heartbeat IPC: 1.76 cumulative IPC: 2.954 (Simulation time: 02 hr 14 min 59 sec)
Heartbeat CPU 0 instructions: 3770000001 cycles: 1276059908 heartbeat IPC: 3.103 cumulative IPC: 2.954 (Simulation time: 02 hr 15 min 21 sec)
Heartbeat CPU 0 instructions: 3780000001 cycles: 1279361438 heartbeat IPC: 3.029 cumulative IPC: 2.955 (Simulation time: 02 hr 15 min 43 sec)
Heartbeat CPU 0 instructions: 3790000003 cycles: 1283585184 heartbeat IPC: 2.368 cumulative IPC: 2.953 (Simulation time: 02 hr 16 min 08 sec)
Heartbeat CPU 0 instructions: 3800000003 cycles: 1289902706 heartbeat IPC: 1.583 cumulative IPC: 2.946 (Simulation time: 02 hr 16 min 38 sec)
Heartbeat CPU 0 instructions: 3810000001 cycles: 1295635621 heartbeat IPC: 1.744 cumulative IPC: 2.941 (Simulation time: 02 hr 17 min 07 sec)
Heartbeat CPU 0 instructions: 3820000000 cycles: 1298484201 heartbeat IPC: 3.511 cumulative IPC: 2.942 (Simulation time: 02 hr 17 min 27 sec)
Heartbeat CPU 0 instructions: 3830000000 cycles: 1301455618 heartbeat IPC: 3.365 cumulative IPC: 2.943 (Simulation time: 02 hr 17 min 47 sec)
Heartbeat CPU 0 instructions: 3840000000 cycles: 1304353769 heartbeat IPC: 3.45 cumulative IPC: 2.944 (Simulation time: 02 hr 18 min 07 sec)
Heartbeat CPU 0 instructions: 3850000003 cycles: 1307345114 heartbeat IPC: 3.343 cumulative IPC: 2.945 (Simulation time: 02 hr 18 min 27 sec)
Heartbeat CPU 0 instructions: 3860000002 cycles: 1310073362 heartbeat IPC: 3.665 cumulative IPC: 2.946 (Simulation time: 02 hr 18 min 47 sec)
Heartbeat CPU 0 instructions: 3870000003 cycles: 1312855253 heartbeat IPC: 3.595 cumulative IPC: 2.948 (Simulation time: 02 hr 19 min 07 sec)
Heartbeat CPU 0 instructions: 3880000003 cycles: 1315816927 heartbeat IPC: 3.376 cumulative IPC: 2.949 (Simulation time: 02 hr 19 min 27 sec)
Heartbeat CPU 0 instructions: 3890000002 cycles: 1318734567 heartbeat IPC: 3.427 cumulative IPC: 2.95 (Simulation time: 02 hr 19 min 46 sec)
Heartbeat CPU 0 instructions: 3900000000 cycles: 1321564367 heartbeat IPC: 3.534 cumulative IPC: 2.951 (Simulation time: 02 hr 20 min 06 sec)
Heartbeat CPU 0 instructions: 3910000002 cycles: 1324191424 heartbeat IPC: 3.807 cumulative IPC: 2.953 (Simulation time: 02 hr 20 min 26 sec)
Heartbeat CPU 0 instructions: 3920000001 cycles: 1327133527 heartbeat IPC: 3.399 cumulative IPC: 2.954 (Simulation time: 02 hr 20 min 46 sec)
Heartbeat CPU 0 instructions: 3930000001 cycles: 1329961675 heartbeat IPC: 3.536 cumulative IPC: 2.955 (Simulation time: 02 hr 21 min 06 sec)
Heartbeat CPU 0 instructions: 3940000001 cycles: 1332846555 heartbeat IPC: 3.466 cumulative IPC: 2.956 (Simulation time: 02 hr 21 min 25 sec)
Heartbeat CPU 0 instructions: 3950000001 cycles: 1335658950 heartbeat IPC: 3.556 cumulative IPC: 2.957 (Simulation time: 02 hr 21 min 45 sec)
Heartbeat CPU 0 instructions: 3960000000 cycles: 1338620150 heartbeat IPC: 3.377 cumulative IPC: 2.958 (Simulation time: 02 hr 22 min 06 sec)
Heartbeat CPU 0 instructions: 3970000000 cycles: 1341539984 heartbeat IPC: 3.425 cumulative IPC: 2.959 (Simulation time: 02 hr 22 min 26 sec)
Heartbeat CPU 0 instructions: 3980000002 cycles: 1344388505 heartbeat IPC: 3.511 cumulative IPC: 2.96 (Simulation time: 02 hr 22 min 46 sec)
Heartbeat CPU 0 instructions: 3990000000 cycles: 1347283262 heartbeat IPC: 3.455 cumulative IPC: 2.962 (Simulation time: 02 hr 23 min 05 sec)
*** Reached end of trace: (0, "traces/600.perlbench_s-210B.champsimtrace.xz")
Heartbeat CPU 0 instructions: 4000000003 cycles: 1350077182 heartbeat IPC: 3.579 cumulative IPC: 2.963 (Simulation time: 02 hr 23 min 25 sec)
Heartbeat CPU 0 instructions: 4010000002 cycles: 1353080552 heartbeat IPC: 3.33 cumulative IPC: 2.964 (Simulation time: 02 hr 23 min 45 sec)
Heartbeat CPU 0 instructions: 4020000004 cycles: 1355780412 heartbeat IPC: 3.704 cumulative IPC: 2.965 (Simulation time: 02 hr 24 min 05 sec)
Heartbeat CPU 0 instructions: 4030000002 cycles: 1358476564 heartbeat IPC: 3.709 cumulative IPC: 2.967 (Simulation time: 02 hr 24 min 24 sec)
Heartbeat CPU 0 instructions: 4040000000 cycles: 1361270005 heartbeat IPC: 3.58 cumulative IPC: 2.968 (Simulation time: 02 hr 24 min 44 sec)
Heartbeat CPU 0 instructions: 4050000002 cycles: 1364014966 heartbeat IPC: 3.643 cumulative IPC: 2.969 (Simulation time: 02 hr 25 min 04 sec)
Heartbeat CPU 0 instructions: 4060000000 cycles: 1366933164 heartbeat IPC: 3.427 cumulative IPC: 2.97 (Simulation time: 02 hr 25 min 24 sec)
Heartbeat CPU 0 instructions: 4070000000 cycles: 1369752336 heartbeat IPC: 3.547 cumulative IPC: 2.971 (Simulation time: 02 hr 25 min 43 sec)
Heartbeat CPU 0 instructions: 4080000000 cycles: 1372631382 heartbeat IPC: 3.473 cumulative IPC: 2.972 (Simulation time: 02 hr 26 min 03 sec)
Heartbeat CPU 0 instructions: 4090000001 cycles: 1375534414 heartbeat IPC: 3.445 cumulative IPC: 2.973 (Simulation time: 02 hr 26 min 23 sec)
Heartbeat CPU 0 instructions: 4100000004 cycles: 1378304045 heartbeat IPC: 3.611 cumulative IPC: 2.975 (Simulation time: 02 hr 26 min 42 sec)
Heartbeat CPU 0 instructions: 4110000003 cycles: 1380952293 heartbeat IPC: 3.776 cumulative IPC: 2.976 (Simulation time: 02 hr 27 min 02 sec)
Heartbeat CPU 0 instructions: 4120000002 cycles: 1383493448 heartbeat IPC: 3.935 cumulative IPC: 2.978 (Simulation time: 02 hr 27 min 21 sec)
Heartbeat CPU 0 instructions: 4130000003 cycles: 1386325585 heartbeat IPC: 3.531 cumulative IPC: 2.979 (Simulation time: 02 hr 27 min 41 sec)
Heartbeat CPU 0 instructions: 4140000004 cycles: 1389197207 heartbeat IPC: 3.482 cumulative IPC: 2.98 (Simulation time: 02 hr 28 min 01 sec)
Heartbeat CPU 0 instructions: 4150000000 cycles: 1392130792 heartbeat IPC: 3.409 cumulative IPC: 2.981 (Simulation time: 02 hr 28 min 21 sec)
Heartbeat CPU 0 instructions: 4160000001 cycles: 1394863267 heartbeat IPC: 3.66 cumulative IPC: 2.982 (Simulation time: 02 hr 28 min 40 sec)
Heartbeat CPU 0 instructions: 4170000000 cycles: 1397712788 heartbeat IPC: 3.509 cumulative IPC: 2.983 (Simulation time: 02 hr 29 min 00 sec)
Heartbeat CPU 0 instructions: 4180000002 cycles: 1400672006 heartbeat IPC: 3.379 cumulative IPC: 2.984 (Simulation time: 02 hr 29 min 20 sec)
Heartbeat CPU 0 instructions: 4190000001 cycles: 1403309581 heartbeat IPC: 3.791 cumulative IPC: 2.986 (Simulation time: 02 hr 29 min 40 sec)
Heartbeat CPU 0 instructions: 4200000002 cycles: 1406270287 heartbeat IPC: 3.378 cumulative IPC: 2.987 (Simulation time: 02 hr 30 min 00 sec)
Heartbeat CPU 0 instructions: 4210000000 cycles: 1409162450 heartbeat IPC: 3.458 cumulative IPC: 2.988 (Simulation time: 02 hr 30 min 20 sec)
Heartbeat CPU 0 instructions: 4220000000 cycles: 1412033481 heartbeat IPC: 3.483 cumulative IPC: 2.989 (Simulation time: 02 hr 30 min 40 sec)
Heartbeat CPU 0 instructions: 4230000000 cycles: 1414817482 heartbeat IPC: 3.592 cumulative IPC: 2.99 (Simulation time: 02 hr 31 min 00 sec)
Heartbeat CPU 0 instructions: 4240000001 cycles: 1417617557 heartbeat IPC: 3.571 cumulative IPC: 2.991 (Simulation time: 02 hr 31 min 20 sec)
Heartbeat CPU 0 instructions: 4250000001 cycles: 1420532908 heartbeat IPC: 3.43 cumulative IPC: 2.992 (Simulation time: 02 hr 31 min 40 sec)
Heartbeat CPU 0 instructions: 4260000003 cycles: 1423337885 heartbeat IPC: 3.565 cumulative IPC: 2.993 (Simulation time: 02 hr 32 min 00 sec)
Heartbeat CPU 0 instructions: 4270000004 cycles: 1426103193 heartbeat IPC: 3.616 cumulative IPC: 2.994 (Simulation time: 02 hr 32 min 19 sec)
Heartbeat CPU 0 instructions: 4280000000 cycles: 1428833215 heartbeat IPC: 3.663 cumulative IPC: 2.995 (Simulation time: 02 hr 32 min 39 sec)
Heartbeat CPU 0 instructions: 4290000002 cycles: 1431633445 heartbeat IPC: 3.571 cumulative IPC: 2.997 (Simulation time: 02 hr 32 min 59 sec)
Heartbeat CPU 0 instructions: 4300000000 cycles: 1434580246 heartbeat IPC: 3.394 cumulative IPC: 2.997 (Simulation time: 02 hr 33 min 19 sec)
Heartbeat CPU 0 instructions: 4310000004 cycles: 1437536256 heartbeat IPC: 3.383 cumulative IPC: 2.998 (Simulation time: 02 hr 33 min 39 sec)
Heartbeat CPU 0 instructions: 4320000004 cycles: 1440413313 heartbeat IPC: 3.476 cumulative IPC: 2.999 (Simulation time: 02 hr 33 min 59 sec)
Heartbeat CPU 0 instructions: 4330000004 cycles: 1443288547 heartbeat IPC: 3.478 cumulative IPC: 3 (Simulation time: 02 hr 34 min 19 sec)
Heartbeat CPU 0 instructions: 4340000002 cycles: 1446110217 heartbeat IPC: 3.544 cumulative IPC: 3.001 (Simulation time: 02 hr 34 min 39 sec)
Heartbeat CPU 0 instructions: 4350000000 cycles: 1448944228 heartbeat IPC: 3.529 cumulative IPC: 3.002 (Simulation time: 02 hr 34 min 59 sec)
Heartbeat CPU 0 instructions: 4360000001 cycles: 1451838040 heartbeat IPC: 3.456 cumulative IPC: 3.003 (Simulation time: 02 hr 35 min 19 sec)
Heartbeat CPU 0 instructions: 4370000002 cycles: 1454529631 heartbeat IPC: 3.715 cumulative IPC: 3.004 (Simulation time: 02 hr 35 min 38 sec)
Heartbeat CPU 0 instructions: 4380000000 cycles: 1457272072 heartbeat IPC: 3.646 cumulative IPC: 3.006 (Simulation time: 02 hr 35 min 58 sec)
Heartbeat CPU 0 instructions: 4390000004 cycles: 1460151683 heartbeat IPC: 3.473 cumulative IPC: 3.007 (Simulation time: 02 hr 36 min 18 sec)
Heartbeat CPU 0 instructions: 4400000001 cycles: 1462977177 heartbeat IPC: 3.539 cumulative IPC: 3.008 (Simulation time: 02 hr 36 min 38 sec)
Heartbeat CPU 0 instructions: 4410000000 cycles: 1465777345 heartbeat IPC: 3.571 cumulative IPC: 3.009 (Simulation time: 02 hr 36 min 57 sec)
Heartbeat CPU 0 instructions: 4420000003 cycles: 1468570650 heartbeat IPC: 3.58 cumulative IPC: 3.01 (Simulation time: 02 hr 37 min 17 sec)
Heartbeat CPU 0 instructions: 4430000002 cycles: 1471349714 heartbeat IPC: 3.598 cumulative IPC: 3.011 (Simulation time: 02 hr 37 min 36 sec)
Heartbeat CPU 0 instructions: 4440000000 cycles: 1474229646 heartbeat IPC: 3.472 cumulative IPC: 3.012 (Simulation time: 02 hr 37 min 56 sec)
Heartbeat CPU 0 instructions: 4450000001 cycles: 1476913714 heartbeat IPC: 3.726 cumulative IPC: 3.013 (Simulation time: 02 hr 38 min 16 sec)
Heartbeat CPU 0 instructions: 4460000003 cycles: 1479795232 heartbeat IPC: 3.47 cumulative IPC: 3.014 (Simulation time: 02 hr 38 min 36 sec)
Heartbeat CPU 0 instructions: 4470000002 cycles: 1483938736 heartbeat IPC: 2.413 cumulative IPC: 3.012 (Simulation time: 02 hr 39 min 00 sec)
Heartbeat CPU 0 instructions: 4480000001 cycles: 1487624284 heartbeat IPC: 2.713 cumulative IPC: 3.012 (Simulation time: 02 hr 39 min 23 sec)
Heartbeat CPU 0 instructions: 4490000001 cycles: 1490597977 heartbeat IPC: 3.363 cumulative IPC: 3.012 (Simulation time: 02 hr 39 min 44 sec)
Heartbeat CPU 0 instructions: 4500000002 cycles: 1493654963 heartbeat IPC: 3.271 cumulative IPC: 3.013 (Simulation time: 02 hr 40 min 04 sec)
Heartbeat CPU 0 instructions: 4510000004 cycles: 1498348189 heartbeat IPC: 2.131 cumulative IPC: 3.01 (Simulation time: 02 hr 40 min 30 sec)
Heartbeat CPU 0 instructions: 4520000003 cycles: 1504042210 heartbeat IPC: 1.756 cumulative IPC: 3.005 (Simulation time: 02 hr 41 min 00 sec)
Heartbeat CPU 0 instructions: 4530000000 cycles: 1508671051 heartbeat IPC: 2.16 cumulative IPC: 3.003 (Simulation time: 02 hr 41 min 27 sec)
Heartbeat CPU 0 instructions: 4540000000 cycles: 1513408622 heartbeat IPC: 2.111 cumulative IPC: 3 (Simulation time: 02 hr 41 min 53 sec)
Heartbeat CPU 0 instructions: 4550000004 cycles: 1518964600 heartbeat IPC: 1.8 cumulative IPC: 2.995 (Simulation time: 02 hr 42 min 21 sec)
Heartbeat CPU 0 instructions: 4560000002 cycles: 1522077231 heartbeat IPC: 3.213 cumulative IPC: 2.996 (Simulation time: 02 hr 42 min 42 sec)
Heartbeat CPU 0 instructions: 4570000004 cycles: 1525097300 heartbeat IPC: 3.311 cumulative IPC: 2.997 (Simulation time: 02 hr 43 min 02 sec)
Heartbeat CPU 0 instructions: 4580000002 cycles: 1528194967 heartbeat IPC: 3.228 cumulative IPC: 2.997 (Simulation time: 02 hr 43 min 23 sec)
Heartbeat CPU 0 instructions: 4590000003 cycles: 1531305359 heartbeat IPC: 3.215 cumulative IPC: 2.997 (Simulation time: 02 hr 43 min 44 sec)
Heartbeat CPU 0 instructions: 4600000003 cycles: 1536214517 heartbeat IPC: 2.037 cumulative IPC: 2.994 (Simulation time: 02 hr 44 min 10 sec)
Heartbeat CPU 0 instructions: 4610000000 cycles: 1541937965 heartbeat IPC: 1.747 cumulative IPC: 2.99 (Simulation time: 02 hr 44 min 39 sec)
Heartbeat CPU 0 instructions: 4620000000 cycles: 1547490045 heartbeat IPC: 1.801 cumulative IPC: 2.985 (Simulation time: 02 hr 45 min 07 sec)
Heartbeat CPU 0 instructions: 4630000004 cycles: 1551778119 heartbeat IPC: 2.332 cumulative IPC: 2.984 (Simulation time: 02 hr 45 min 32 sec)
Heartbeat CPU 0 instructions: 4640000002 cycles: 1556675036 heartbeat IPC: 2.042 cumulative IPC: 2.981 (Simulation time: 02 hr 45 min 58 sec)
Heartbeat CPU 0 instructions: 4650000000 cycles: 1562629496 heartbeat IPC: 1.679 cumulative IPC: 2.976 (Simulation time: 02 hr 46 min 28 sec)
Heartbeat CPU 0 instructions: 4660000002 cycles: 1568202831 heartbeat IPC: 1.794 cumulative IPC: 2.972 (Simulation time: 02 hr 46 min 56 sec)
Heartbeat CPU 0 instructions: 4670000000 cycles: 1571843287 heartbeat IPC: 2.747 cumulative IPC: 2.971 (Simulation time: 02 hr 47 min 19 sec)
Heartbeat CPU 0 instructions: 4680000000 cycles: 1578684616 heartbeat IPC: 1.462 cumulative IPC: 2.964 (Simulation time: 02 hr 47 min 51 sec)
Heartbeat CPU 0 instructions: 4690000000 cycles: 1584456823 heartbeat IPC: 1.732 cumulative IPC: 2.96 (Simulation time: 02 hr 48 min 20 sec)
Heartbeat CPU 0 instructions: 4700000003 cycles: 1587339691 heartbeat IPC: 3.469 cumulative IPC: 2.961 (Simulation time: 02 hr 48 min 40 sec)
Heartbeat CPU 0 instructions: 4710000000 cycles: 1590136185 heartbeat IPC: 3.576 cumulative IPC: 2.962 (Simulation time: 02 hr 49 min 00 sec)
Heartbeat CPU 0 instructions: 4720000000 cycles: 1592986297 heartbeat IPC: 3.509 cumulative IPC: 2.963 (Simulation time: 02 hr 49 min 20 sec)
Heartbeat CPU 0 instructions: 4730000002 cycles: 1595988740 heartbeat IPC: 3.331 cumulative IPC: 2.964 (Simulation time: 02 hr 49 min 41 sec)
Heartbeat CPU 0 instructions: 4740000001 cycles: 1598862868 heartbeat IPC: 3.479 cumulative IPC: 2.965 (Simulation time: 02 hr 50 min 01 sec)
Heartbeat CPU 0 instructions: 4750000004 cycles: 1601716186 heartbeat IPC: 3.505 cumulative IPC: 2.966 (Simulation time: 02 hr 50 min 21 sec)
Heartbeat CPU 0 instructions: 4760000000 cycles: 1604701852 heartbeat IPC: 3.349 cumulative IPC: 2.966 (Simulation time: 02 hr 50 min 41 sec)
Heartbeat CPU 0 instructions: 4770000001 cycles: 1607525230 heartbeat IPC: 3.542 cumulative IPC: 2.967 (Simulation time: 02 hr 51 min 00 sec)
Heartbeat CPU 0 instructions: 4780000002 cycles: 1610203702 heartbeat IPC: 3.733 cumulative IPC: 2.969 (Simulation time: 02 hr 51 min 20 sec)
Heartbeat CPU 0 instructions: 4790000001 cycles: 1613058900 heartbeat IPC: 3.502 cumulative IPC: 2.97 (Simulation time: 02 hr 51 min 40 sec)
Heartbeat CPU 0 instructions: 4800000001 cycles: 1615724244 heartbeat IPC: 3.752 cumulative IPC: 2.971 (Simulation time: 02 hr 51 min 59 sec)
Heartbeat CPU 0 instructions: 4810000003 cycles: 1618705812 heartbeat IPC: 3.354 cumulative IPC: 2.972 (Simulation time: 02 hr 52 min 20 sec)
Heartbeat CPU 0 instructions: 4820000004 cycles: 1621601417 heartbeat IPC: 3.454 cumulative IPC: 2.972 (Simulation time: 02 hr 52 min 41 sec)
Heartbeat CPU 0 instructions: 4830000002 cycles: 1624417692 heartbeat IPC: 3.551 cumulative IPC: 2.973 (Simulation time: 02 hr 53 min 01 sec)
Heartbeat CPU 0 instructions: 4840000000 cycles: 1627363031 heartbeat IPC: 3.395 cumulative IPC: 2.974 (Simulation time: 02 hr 53 min 21 sec)
Heartbeat CPU 0 instructions: 4850000003 cycles: 1630247488 heartbeat IPC: 3.467 cumulative IPC: 2.975 (Simulation time: 02 hr 53 min 42 sec)
Heartbeat CPU 0 instructions: 4860000002 cycles: 1632918073 heartbeat IPC: 3.744 cumulative IPC: 2.976 (Simulation time: 02 hr 54 min 02 sec)
Heartbeat CPU 0 instructions: 4870000004 cycles: 1635528148 heartbeat IPC: 3.831 cumulative IPC: 2.978 (Simulation time: 02 hr 54 min 22 sec)
Heartbeat CPU 0 instructions: 4880000004 cycles: 1638291461 heartbeat IPC: 3.619 cumulative IPC: 2.979 (Simulation time: 02 hr 54 min 42 sec)
Heartbeat CPU 0 instructions: 4890000003 cycles: 1641124535 heartbeat IPC: 3.53 cumulative IPC: 2.98 (Simulation time: 02 hr 55 min 01 sec)
Heartbeat CPU 0 instructions: 4900000001 cycles: 1644080552 heartbeat IPC: 3.383 cumulative IPC: 2.98 (Simulation time: 02 hr 55 min 21 sec)
Heartbeat CPU 0 instructions: 4910000001 cycles: 1646865170 heartbeat IPC: 3.591 cumulative IPC: 2.981 (Simulation time: 02 hr 55 min 41 sec)
Heartbeat CPU 0 instructions: 4920000003 cycles: 1649676354 heartbeat IPC: 3.557 cumulative IPC: 2.982 (Simulation time: 02 hr 56 min 01 sec)
Heartbeat CPU 0 instructions: 4930000001 cycles: 1652572256 heartbeat IPC: 3.453 cumulative IPC: 2.983 (Simulation time: 02 hr 56 min 21 sec)
Heartbeat CPU 0 instructions: 4940000003 cycles: 1655425796 heartbeat IPC: 3.504 cumulative IPC: 2.984 (Simulation time: 02 hr 56 min 42 sec)
Heartbeat CPU 0 instructions: 4950000000 cycles: 1658194333 heartbeat IPC: 3.612 cumulative IPC: 2.985 (Simulation time: 02 hr 57 min 02 sec)
Heartbeat CPU 0 instructions: 4960000002 cycles: 1661121094 heartbeat IPC: 3.417 cumulative IPC: 2.986 (Simulation time: 02 hr 57 min 23 sec)
Heartbeat CPU 0 instructions: 4970000002 cycles: 1664047990 heartbeat IPC: 3.417 cumulative IPC: 2.987 (Simulation time: 02 hr 57 min 43 sec)
Heartbeat CPU 0 instructions: 4980000000 cycles: 1666990597 heartbeat IPC: 3.398 cumulative IPC: 2.987 (Simulation time: 02 hr 58 min 04 sec)
Heartbeat CPU 0 instructions: 4990000003 cycles: 1669875376 heartbeat IPC: 3.466 cumulative IPC: 2.988 (Simulation time: 02 hr 58 min 25 sec)
Heartbeat CPU 0 instructions: 5000000002 cycles: 1672655225 heartbeat IPC: 3.597 cumulative IPC: 2.989 (Simulation time: 02 hr 58 min 46 sec)
Heartbeat CPU 0 instructions: 5010000000 cycles: 1675587266 heartbeat IPC: 3.411 cumulative IPC: 2.99 (Simulation time: 02 hr 59 min 07 sec)
Heartbeat CPU 0 instructions: 5020000001 cycles: 1678437840 heartbeat IPC: 3.508 cumulative IPC: 2.991 (Simulation time: 02 hr 59 min 28 sec)
Heartbeat CPU 0 instructions: 5030000004 cycles: 1681202439 heartbeat IPC: 3.617 cumulative IPC: 2.992 (Simulation time: 02 hr 59 min 49 sec)
Heartbeat CPU 0 instructions: 5040000003 cycles: 1683998281 heartbeat IPC: 3.577 cumulative IPC: 2.993 (Simulation time: 03 hr 00 min 09 sec)
Heartbeat CPU 0 instructions: 5050000000 cycles: 1686840329 heartbeat IPC: 3.519 cumulative IPC: 2.994 (Simulation time: 03 hr 00 min 30 sec)
Heartbeat CPU 0 instructions: 5060000004 cycles: 1689770501 heartbeat IPC: 3.413 cumulative IPC: 2.994 (Simulation time: 03 hr 00 min 51 sec)
Heartbeat CPU 0 instructions: 5070000001 cycles: 1692764392 heartbeat IPC: 3.34 cumulative IPC: 2.995 (Simulation time: 03 hr 01 min 11 sec)
Heartbeat CPU 0 instructions: 5080000001 cycles: 1695651306 heartbeat IPC: 3.464 cumulative IPC: 2.996 (Simulation time: 03 hr 01 min 32 sec)
Heartbeat CPU 0 instructions: 5090000003 cycles: 1698552029 heartbeat IPC: 3.447 cumulative IPC: 2.997 (Simulation time: 03 hr 01 min 53 sec)
Heartbeat CPU 0 instructions: 5100000003 cycles: 1701316880 heartbeat IPC: 3.617 cumulative IPC: 2.998 (Simulation time: 03 hr 02 min 17 sec)
Heartbeat CPU 0 instructions: 5110000002 cycles: 1704239324 heartbeat IPC: 3.422 cumulative IPC: 2.998 (Simulation time: 03 hr 02 min 37 sec)
Heartbeat CPU 0 instructions: 5120000000 cycles: 1707068947 heartbeat IPC: 3.534 cumulative IPC: 2.999 (Simulation time: 03 hr 03 min 01 sec)
Heartbeat CPU 0 instructions: 5130000000 cycles: 1709693420 heartbeat IPC: 3.81 cumulative IPC: 3.001 (Simulation time: 03 hr 03 min 22 sec)
Heartbeat CPU 0 instructions: 5140000003 cycles: 1712693422 heartbeat IPC: 3.333 cumulative IPC: 3.001 (Simulation time: 03 hr 03 min 43 sec)
Heartbeat CPU 0 instructions: 5150000003 cycles: 1715576770 heartbeat IPC: 3.468 cumulative IPC: 3.002 (Simulation time: 03 hr 04 min 04 sec)
Heartbeat CPU 0 instructions: 5160000003 cycles: 1718434730 heartbeat IPC: 3.499 cumulative IPC: 3.003 (Simulation time: 03 hr 04 min 24 sec)
Heartbeat CPU 0 instructions: 5170000002 cycles: 1721187843 heartbeat IPC: 3.632 cumulative IPC: 3.004 (Simulation time: 03 hr 04 min 45 sec)
Heartbeat CPU 0 instructions: 5180000002 cycles: 1723994822 heartbeat IPC: 3.563 cumulative IPC: 3.005 (Simulation time: 03 hr 05 min 07 sec)
Heartbeat CPU 0 instructions: 5190000002 cycles: 1726920873 heartbeat IPC: 3.418 cumulative IPC: 3.005 (Simulation time: 03 hr 05 min 29 sec)
Heartbeat CPU 0 instructions: 5200000003 cycles: 1729642643 heartbeat IPC: 3.674 cumulative IPC: 3.006 (Simulation time: 03 hr 05 min 50 sec)
Heartbeat CPU 0 instructions: 5210000001 cycles: 1732511714 heartbeat IPC: 3.485 cumulative IPC: 3.007 (Simulation time: 03 hr 06 min 13 sec)
Heartbeat CPU 0 instructions: 5220000004 cycles: 1736374237 heartbeat IPC: 2.589 cumulative IPC: 3.006 (Simulation time: 03 hr 06 min 39 sec)
Heartbeat CPU 0 instructions: 5230000004 cycles: 1740625613 heartbeat IPC: 2.352 cumulative IPC: 3.005 (Simulation time: 03 hr 07 min 06 sec)
Heartbeat CPU 0 instructions: 5240000001 cycles: 1745811798 heartbeat IPC: 1.928 cumulative IPC: 3.001 (Simulation time: 03 hr 07 min 36 sec)
Heartbeat CPU 0 instructions: 5250000000 cycles: 1751314681 heartbeat IPC: 1.817 cumulative IPC: 2.998 (Simulation time: 03 hr 08 min 07 sec)
Heartbeat CPU 0 instructions: 5260000000 cycles: 1754346012 heartbeat IPC: 3.299 cumulative IPC: 2.998 (Simulation time: 03 hr 08 min 30 sec)
Heartbeat CPU 0 instructions: 5270000000 cycles: 1757225344 heartbeat IPC: 3.473 cumulative IPC: 2.999 (Simulation time: 03 hr 08 min 52 sec)
Heartbeat CPU 0 instructions: 5280000004 cycles: 1760254325 heartbeat IPC: 3.301 cumulative IPC: 3 (Simulation time: 03 hr 09 min 14 sec)
Heartbeat CPU 0 instructions: 5290000000 cycles: 1763256059 heartbeat IPC: 3.331 cumulative IPC: 3 (Simulation time: 03 hr 09 min 36 sec)
Heartbeat CPU 0 instructions: 5300000004 cycles: 1766281889 heartbeat IPC: 3.305 cumulative IPC: 3.001 (Simulation time: 03 hr 09 min 59 sec)
Heartbeat CPU 0 instructions: 5310000001 cycles: 1769348821 heartbeat IPC: 3.261 cumulative IPC: 3.001 (Simulation time: 03 hr 10 min 21 sec)
Heartbeat CPU 0 instructions: 5320000001 cycles: 1775032061 heartbeat IPC: 1.76 cumulative IPC: 2.997 (Simulation time: 03 hr 10 min 53 sec)
Heartbeat CPU 0 instructions: 5330000000 cycles: 1780826146 heartbeat IPC: 1.726 cumulative IPC: 2.993 (Simulation time: 03 hr 11 min 24 sec)
Heartbeat CPU 0 instructions: 5340000000 cycles: 1785948383 heartbeat IPC: 1.952 cumulative IPC: 2.99 (Simulation time: 03 hr 11 min 53 sec)
Heartbeat CPU 0 instructions: 5350000002 cycles: 1789105338 heartbeat IPC: 3.168 cumulative IPC: 2.99 (Simulation time: 03 hr 12 min 16 sec)
Heartbeat CPU 0 instructions: 5360000003 cycles: 1792306885 heartbeat IPC: 3.123 cumulative IPC: 2.991 (Simulation time: 03 hr 12 min 38 sec)
Heartbeat CPU 0 instructions: 5370000000 cycles: 1795523642 heartbeat IPC: 3.109 cumulative IPC: 2.991 (Simulation time: 03 hr 13 min 01 sec)
Heartbeat CPU 0 instructions: 5380000001 cycles: 1801254723 heartbeat IPC: 1.745 cumulative IPC: 2.987 (Simulation time: 03 hr 13 min 32 sec)
Heartbeat CPU 0 instructions: 5390000001 cycles: 1807191283 heartbeat IPC: 1.684 cumulative IPC: 2.983 (Simulation time: 03 hr 14 min 04 sec)
Heartbeat CPU 0 instructions: 5400000004 cycles: 1811764471 heartbeat IPC: 2.187 cumulative IPC: 2.981 (Simulation time: 03 hr 14 min 31 sec)
Heartbeat CPU 0 instructions: 5410000001 cycles: 1814715494 heartbeat IPC: 3.389 cumulative IPC: 2.981 (Simulation time: 03 hr 14 min 53 sec)
Heartbeat CPU 0 instructions: 5420000000 cycles: 1817637201 heartbeat IPC: 3.423 cumulative IPC: 2.982 (Simulation time: 03 hr 15 min 15 sec)
Heartbeat CPU 0 instructions: 5430000000 cycles: 1820503878 heartbeat IPC: 3.488 cumulative IPC: 2.983 (Simulation time: 03 hr 15 min 36 sec)
Heartbeat CPU 0 instructions: 5440000000 cycles: 1823365983 heartbeat IPC: 3.494 cumulative IPC: 2.983 (Simulation time: 03 hr 15 min 58 sec)
Heartbeat CPU 0 instructions: 5450000002 cycles: 1826213373 heartbeat IPC: 3.512 cumulative IPC: 2.984 (Simulation time: 03 hr 16 min 19 sec)
Heartbeat CPU 0 instructions: 5460000000 cycles: 1829112808 heartbeat IPC: 3.449 cumulative IPC: 2.985 (Simulation time: 03 hr 16 min 41 sec)
Heartbeat CPU 0 instructions: 5470000002 cycles: 1832045994 heartbeat IPC: 3.409 cumulative IPC: 2.986 (Simulation time: 03 hr 17 min 02 sec)
Heartbeat CPU 0 instructions: 5480000000 cycles: 1834951893 heartbeat IPC: 3.441 cumulative IPC: 2.986 (Simulation time: 03 hr 17 min 24 sec)
Heartbeat CPU 0 instructions: 5490000000 cycles: 1837815346 heartbeat IPC: 3.492 cumulative IPC: 2.987 (Simulation time: 03 hr 17 min 45 sec)
Heartbeat CPU 0 instructions: 5500000004 cycles: 1840805670 heartbeat IPC: 3.344 cumulative IPC: 2.988 (Simulation time: 03 hr 18 min 07 sec)
Heartbeat CPU 0 instructions: 5510000004 cycles: 1843691224 heartbeat IPC: 3.466 cumulative IPC: 2.989 (Simulation time: 03 hr 18 min 29 sec)
Heartbeat CPU 0 instructions: 5520000004 cycles: 1846598110 heartbeat IPC: 3.44 cumulative IPC: 2.989 (Simulation time: 03 hr 18 min 50 sec)
Heartbeat CPU 0 instructions: 5530000001 cycles: 1849459616 heartbeat IPC: 3.495 cumulative IPC: 2.99 (Simulation time: 03 hr 19 min 12 sec)
Heartbeat CPU 0 instructions: 5540000002 cycles: 1853417311 heartbeat IPC: 2.527 cumulative IPC: 2.989 (Simulation time: 03 hr 19 min 37 sec)
Heartbeat CPU 0 instructions: 5550000004 cycles: 1859109909 heartbeat IPC: 1.757 cumulative IPC: 2.985 (Simulation time: 03 hr 20 min 08 sec)
Heartbeat CPU 0 instructions: 5560000003 cycles: 1864799784 heartbeat IPC: 1.758 cumulative IPC: 2.982 (Simulation time: 03 hr 20 min 39 sec)
Heartbeat CPU 0 instructions: 5570000003 cycles: 1867924619 heartbeat IPC: 3.2 cumulative IPC: 2.982 (Simulation time: 03 hr 21 min 01 sec)
Heartbeat CPU 0 instructions: 5580000001 cycles: 1870950916 heartbeat IPC: 3.304 cumulative IPC: 2.982 (Simulation time: 03 hr 21 min 23 sec)
Heartbeat CPU 0 instructions: 5590000003 cycles: 1874104388 heartbeat IPC: 3.171 cumulative IPC: 2.983 (Simulation time: 03 hr 21 min 46 sec)
Heartbeat CPU 0 instructions: 5600000001 cycles: 1877228602 heartbeat IPC: 3.201 cumulative IPC: 2.983 (Simulation time: 03 hr 22 min 08 sec)
Heartbeat CPU 0 instructions: 5610000000 cycles: 1883584715 heartbeat IPC: 1.573 cumulative IPC: 2.978 (Simulation time: 03 hr 22 min 42 sec)
Heartbeat CPU 0 instructions: 5620000004 cycles: 1888528422 heartbeat IPC: 2.023 cumulative IPC: 2.976 (Simulation time: 03 hr 23 min 11 sec)
[...]
Heartbeat CPU 0 instructions: 8960000000 cycles: 3008058831 heartbeat IPC: 3.419 cumulative IPC: 2.979 (Simulation time: 05 hr 28 min 23 sec)
Heartbeat CPU 0 instructions: 8970000000 cycles: 3010984897 heartbeat IPC: 3.418 cumulative IPC: 2.979 (Simulation time: 05 hr 28 min 41 sec)
Heartbeat CPU 0 instructions: 8980000000 cycles: 3013934241 heartbeat IPC: 3.391 cumulative IPC: 2.979 (Simulation time: 05 hr 29 min 00 sec)
Heartbeat CPU 0 instructions: 8990000001 cycles: 3016817211 heartbeat IPC: 3.469 cumulative IPC: 2.98 (Simulation time: 05 hr 29 min 20 sec)
Heartbeat CPU 0 instructions: 9000000000 cycles: 3019596374 heartbeat IPC: 3.598 cumulative IPC: 2.981 (Simulation time: 05 hr 29 min 39 sec)
Heartbeat CPU 0 instructions: 9010000003 cycles: 3022526371 heartbeat IPC: 3.413 cumulative IPC: 2.981 (Simulation time: 05 hr 29 min 57 sec)
Heartbeat CPU 0 instructions: 9020000004 cycles: 3025376175 heartbeat IPC: 3.509 cumulative IPC: 2.981 (Simulation time: 05 hr 30 min 16 sec)
Heartbeat CPU 0 instructions: 9030000002 cycles: 3028139992 heartbeat IPC: 3.618 cumulative IPC: 2.982 (Simulation time: 05 hr 30 min 35 sec)
Heartbeat CPU 0 instructions: 9040000001 cycles: 3030935105 heartbeat IPC: 3.578 cumulative IPC: 2.983 (Simulation time: 05 hr 30 min 53 sec)
Heartbeat CPU 0 instructions: 9050000003 cycles: 3033774942 heartbeat IPC: 3.521 cumulative IPC: 2.983 (Simulation time: 05 hr 31 min 12 sec)
Heartbeat CPU 0 instructions: 9060000002 cycles: 3036700142 heartbeat IPC: 3.419 cumulative IPC: 2.984 (Simulation time: 05 hr 31 min 31 sec)
Heartbeat CPU 0 instructions: 9070000004 cycles: 3039692593 heartbeat IPC: 3.342 cumulative IPC: 2.984 (Simulation time: 05 hr 31 min 51 sec)
Heartbeat CPU 0 instructions: 9080000004 cycles: 3042579517 heartbeat IPC: 3.464 cumulative IPC: 2.984 (Simulation time: 05 hr 32 min 10 sec)
Heartbeat CPU 0 instructions: 9090000001 cycles: 3045482211 heartbeat IPC: 3.445 cumulative IPC: 2.985 (Simulation time: 05 hr 32 min 30 sec)
Heartbeat CPU 0 instructions: 9100000001 cycles: 3048245092 heartbeat IPC: 3.619 cumulative IPC: 2.985 (Simulation time: 05 hr 32 min 50 sec)
Heartbeat CPU 0 instructions: 9110000000 cycles: 3051166767 heartbeat IPC: 3.423 cumulative IPC: 2.986 (Simulation time: 05 hr 33 min 10 sec)
Heartbeat CPU 0 instructions: 9120000004 cycles: 3053994087 heartbeat IPC: 3.537 cumulative IPC: 2.986 (Simulation time: 05 hr 33 min 29 sec)
Heartbeat CPU 0 instructions: 9130000003 cycles: 3056618341 heartbeat IPC: 3.811 cumulative IPC: 2.987 (Simulation time: 05 hr 33 min 49 sec)
Heartbeat CPU 0 instructions: 9140000001 cycles: 3059617879 heartbeat IPC: 3.334 cumulative IPC: 2.987 (Simulation time: 05 hr 34 min 09 sec)
Heartbeat CPU 0 instructions: 9150000001 cycles: 3062499554 heartbeat IPC: 3.47 cumulative IPC: 2.988 (Simulation time: 05 hr 34 min 29 sec)
Heartbeat CPU 0 instructions: 9160000001 cycles: 3065356896 heartbeat IPC: 3.5 cumulative IPC: 2.988 (Simulation time: 05 hr 34 min 49 sec)
Heartbeat CPU 0 instructions: 9170000000 cycles: 3068109295 heartbeat IPC: 3.633 cumulative IPC: 2.989 (Simulation time: 05 hr 35 min 08 sec)
Heartbeat CPU 0 instructions: 9180000000 cycles: 3070918718 heartbeat IPC: 3.559 cumulative IPC: 2.989 (Simulation time: 05 hr 35 min 28 sec)
Heartbeat CPU 0 instructions: 9190000000 cycles: 3073842562 heartbeat IPC: 3.42 cumulative IPC: 2.99 (Simulation time: 05 hr 35 min 48 sec)
Heartbeat CPU 0 instructions: 9200000001 cycles: 3076571046 heartbeat IPC: 3.665 cumulative IPC: 2.99 (Simulation time: 05 hr 36 min 08 sec)
Heartbeat CPU 0 instructions: 9210000003 cycles: 3079441708 heartbeat IPC: 3.484 cumulative IPC: 2.991 (Simulation time: 05 hr 36 min 28 sec)
Heartbeat CPU 0 instructions: 9220000003 cycles: 3083304095 heartbeat IPC: 2.589 cumulative IPC: 2.99 (Simulation time: 05 hr 36 min 51 sec)
Heartbeat CPU 0 instructions: 9230000002 cycles: 3087556463 heartbeat IPC: 2.352 cumulative IPC: 2.989 (Simulation time: 05 hr 37 min 15 sec)
Heartbeat CPU 0 instructions: 9240000000 cycles: 3092736925 heartbeat IPC: 1.93 cumulative IPC: 2.988 (Simulation time: 05 hr 37 min 42 sec)
Heartbeat CPU 0 instructions: 9250000001 cycles: 3098251137 heartbeat IPC: 1.813 cumulative IPC: 2.986 (Simulation time: 05 hr 38 min 10 sec)
Heartbeat CPU 0 instructions: 9260000001 cycles: 3101257602 heartbeat IPC: 3.326 cumulative IPC: 2.986 (Simulation time: 05 hr 38 min 31 sec)
Heartbeat CPU 0 instructions: 9270000004 cycles: 3104149044 heartbeat IPC: 3.458 cumulative IPC: 2.986 (Simulation time: 05 hr 38 min 51 sec)
Heartbeat CPU 0 instructions: 9280000002 cycles: 3107174627 heartbeat IPC: 3.305 cumulative IPC: 2.987 (Simulation time: 05 hr 39 min 12 sec)
Heartbeat CPU 0 instructions: 9290000003 cycles: 3110176634 heartbeat IPC: 3.331 cumulative IPC: 2.987 (Simulation time: 05 hr 39 min 32 sec)
Heartbeat CPU 0 instructions: 9300000002 cycles: 3113203251 heartbeat IPC: 3.304 cumulative IPC: 2.987 (Simulation time: 05 hr 39 min 52 sec)
Heartbeat CPU 0 instructions: 9310000001 cycles: 3116272430 heartbeat IPC: 3.258 cumulative IPC: 2.988 (Simulation time: 05 hr 40 min 13 sec)
Heartbeat CPU 0 instructions: 9320000004 cycles: 3121952057 heartbeat IPC: 1.761 cumulative IPC: 2.985 (Simulation time: 05 hr 40 min 42 sec)
Heartbeat CPU 0 instructions: 9330000003 cycles: 3127739953 heartbeat IPC: 1.728 cumulative IPC: 2.983 (Simulation time: 05 hr 41 min 11 sec)
Heartbeat CPU 0 instructions: 9340000004 cycles: 3132863330 heartbeat IPC: 1.952 cumulative IPC: 2.981 (Simulation time: 05 hr 41 min 38 sec)
Heartbeat CPU 0 instructions: 9350000000 cycles: 3136011705 heartbeat IPC: 3.176 cumulative IPC: 2.981 (Simulation time: 05 hr 41 min 58 sec)
Heartbeat CPU 0 instructions: 9360000001 cycles: 3139213063 heartbeat IPC: 3.124 cumulative IPC: 2.982 (Simulation time: 05 hr 42 min 20 sec)
Heartbeat CPU 0 instructions: 9370000003 cycles: 3142432239 heartbeat IPC: 3.106 cumulative IPC: 2.982 (Simulation time: 05 hr 42 min 41 sec)
Heartbeat CPU 0 instructions: 9380000000 cycles: 3148160189 heartbeat IPC: 1.746 cumulative IPC: 2.98 (Simulation time: 05 hr 43 min 10 sec)
Heartbeat CPU 0 instructions: 9390000004 cycles: 3154088031 heartbeat IPC: 1.687 cumulative IPC: 2.977 (Simulation time: 05 hr 43 min 39 sec)
Heartbeat CPU 0 instructions: 9400000002 cycles: 3158669685 heartbeat IPC: 2.183 cumulative IPC: 2.976 (Simulation time: 05 hr 44 min 04 sec)
Heartbeat CPU 0 instructions: 9410000004 cycles: 3161567979 heartbeat IPC: 3.45 cumulative IPC: 2.976 (Simulation time: 05 hr 44 min 24 sec)
Heartbeat CPU 0 instructions: 9420000003 cycles: 3164489205 heartbeat IPC: 3.423 cumulative IPC: 2.977 (Simulation time: 05 hr 44 min 44 sec)
Heartbeat CPU 0 instructions: 9430000000 cycles: 3167385508 heartbeat IPC: 3.453 cumulative IPC: 2.977 (Simulation time: 05 hr 45 min 04 sec)
Heartbeat CPU 0 instructions: 9440000003 cycles: 3170248886 heartbeat IPC: 3.492 cumulative IPC: 2.978 (Simulation time: 05 hr 45 min 28 sec)
Heartbeat CPU 0 instructions: 9450000000 cycles: 3173096879 heartbeat IPC: 3.511 cumulative IPC: 2.978 (Simulation time: 05 hr 45 min 52 sec)
Heartbeat CPU 0 instructions: 9460000000 cycles: 3175995047 heartbeat IPC: 3.45 cumulative IPC: 2.979 (Simulation time: 05 hr 46 min 12 sec)
Heartbeat CPU 0 instructions: 9470000000 cycles: 3178927515 heartbeat IPC: 3.41 cumulative IPC: 2.979 (Simulation time: 05 hr 46 min 33 sec)
Heartbeat CPU 0 instructions: 9480000002 cycles: 3181834747 heartbeat IPC: 3.44 cumulative IPC: 2.979 (Simulation time: 05 hr 46 min 54 sec)
Heartbeat CPU 0 instructions: 9490000000 cycles: 3184697767 heartbeat IPC: 3.493 cumulative IPC: 2.98 (Simulation time: 05 hr 47 min 14 sec)
Heartbeat CPU 0 instructions: 9500000002 cycles: 3187685416 heartbeat IPC: 3.347 cumulative IPC: 2.98 (Simulation time: 05 hr 47 min 36 sec)
Heartbeat CPU 0 instructions: 9510000002 cycles: 3190573049 heartbeat IPC: 3.463 cumulative IPC: 2.981 (Simulation time: 05 hr 47 min 56 sec)
Heartbeat CPU 0 instructions: 9520000002 cycles: 3193482389 heartbeat IPC: 3.437 cumulative IPC: 2.981 (Simulation time: 05 hr 48 min 17 sec)
Heartbeat CPU 0 instructions: 9530000002 cycles: 3196345234 heartbeat IPC: 3.493 cumulative IPC: 2.982 (Simulation time: 05 hr 48 min 38 sec)
Heartbeat CPU 0 instructions: 9540000000 cycles: 3200303901 heartbeat IPC: 2.526 cumulative IPC: 2.981 (Simulation time: 05 hr 49 min 02 sec)
Heartbeat CPU 0 instructions: 9550000002 cycles: 3205994244 heartbeat IPC: 1.757 cumulative IPC: 2.979 (Simulation time: 05 hr 49 min 30 sec)
Heartbeat CPU 0 instructions: 9560000001 cycles: 3211690864 heartbeat IPC: 1.755 cumulative IPC: 2.977 (Simulation time: 05 hr 50 min 00 sec)
Heartbeat CPU 0 instructions: 9570000001 cycles: 3214800550 heartbeat IPC: 3.216 cumulative IPC: 2.977 (Simulation time: 05 hr 50 min 22 sec)
Heartbeat CPU 0 instructions: 9580000003 cycles: 3217825395 heartbeat IPC: 3.306 cumulative IPC: 2.977 (Simulation time: 05 hr 50 min 42 sec)
Heartbeat CPU 0 instructions: 9590000001 cycles: 3220982406 heartbeat IPC: 3.168 cumulative IPC: 2.977 (Simulation time: 05 hr 51 min 05 sec)
Heartbeat CPU 0 instructions: 9600000004 cycles: 3224107672 heartbeat IPC: 3.2 cumulative IPC: 2.978 (Simulation time: 05 hr 51 min 27 sec)
Heartbeat CPU 0 instructions: 9610000003 cycles: 3230457957 heartbeat IPC: 1.575 cumulative IPC: 2.975 (Simulation time: 05 hr 51 min 59 sec)
Heartbeat CPU 0 instructions: 9620000002 cycles: 3235401350 heartbeat IPC: 2.023 cumulative IPC: 2.973 (Simulation time: 05 hr 52 min 26 sec)
Heartbeat CPU 0 instructions: 9630000003 cycles: 3240097879 heartbeat IPC: 2.129 cumulative IPC: 2.972 (Simulation time: 05 hr 52 min 53 sec)
Heartbeat CPU 0 instructions: 9640000001 cycles: 3243108250 heartbeat IPC: 3.322 cumulative IPC: 2.972 (Simulation time: 05 hr 53 min 14 sec)
Heartbeat CPU 0 instructions: 9650000004 cycles: 3246047402 heartbeat IPC: 3.402 cumulative IPC: 2.973 (Simulation time: 05 hr 53 min 35 sec)
Heartbeat CPU 0 instructions: 9660000000 cycles: 3249091713 heartbeat IPC: 3.285 cumulative IPC: 2.973 (Simulation time: 05 hr 53 min 57 sec)
Heartbeat CPU 0 instructions: 9670000002 cycles: 3252090270 heartbeat IPC: 3.335 cumulative IPC: 2.973 (Simulation time: 05 hr 54 min 18 sec)
Heartbeat CPU 0 instructions: 9680000001 cycles: 3255145521 heartbeat IPC: 3.273 cumulative IPC: 2.974 (Simulation time: 05 hr 54 min 40 sec)
Heartbeat CPU 0 instructions: 9690000000 cycles: 3258145114 heartbeat IPC: 3.334 cumulative IPC: 2.974 (Simulation time: 05 hr 55 min 01 sec)
Heartbeat CPU 0 instructions: 9700000003 cycles: 3263873143 heartbeat IPC: 1.746 cumulative IPC: 2.972 (Simulation time: 05 hr 55 min 31 sec)
Heartbeat CPU 0 instructions: 9710000000 cycles: 3269744001 heartbeat IPC: 1.703 cumulative IPC: 2.97 (Simulation time: 05 hr 56 min 01 sec)
Heartbeat CPU 0 instructions: 9720000003 cycles: 3274222501 heartbeat IPC: 2.233 cumulative IPC: 2.969 (Simulation time: 05 hr 56 min 30 sec)
Heartbeat CPU 0 instructions: 9730000001 cycles: 3277428677 heartbeat IPC: 3.119 cumulative IPC: 2.969 (Simulation time: 05 hr 56 min 52 sec)
Heartbeat CPU 0 instructions: 9740000000 cycles: 3281081823 heartbeat IPC: 2.737 cumulative IPC: 2.969 (Simulation time: 05 hr 57 min 16 sec)
Heartbeat CPU 0 instructions: 9750000002 cycles: 3287504262 heartbeat IPC: 1.557 cumulative IPC: 2.966 (Simulation time: 05 hr 57 min 49 sec)
Heartbeat CPU 0 instructions: 9760000000 cycles: 3293202803 heartbeat IPC: 1.755 cumulative IPC: 2.964 (Simulation time: 05 hr 58 min 20 sec)
Heartbeat CPU 0 instructions: 9770000001 cycles: 3296413333 heartbeat IPC: 3.115 cumulative IPC: 2.964 (Simulation time: 05 hr 58 min 43 sec)
Heartbeat CPU 0 instructions: 9780000003 cycles: 3299712632 heartbeat IPC: 3.031 cumulative IPC: 2.964 (Simulation time: 05 hr 59 min 07 sec)
Heartbeat CPU 0 instructions: 9790000000 cycles: 3303935508 heartbeat IPC: 2.368 cumulative IPC: 2.963 (Simulation time: 05 hr 59 min 34 sec)
Heartbeat CPU 0 instructions: 9800000000 cycles: 3310245453 heartbeat IPC: 1.585 cumulative IPC: 2.961 (Simulation time: 06 hr 00 min 07 sec)
Heartbeat CPU 0 instructions: 9810000000 cycles: 3315992091 heartbeat IPC: 1.74 cumulative IPC: 2.958 (Simulation time: 06 hr 00 min 38 sec)
Heartbeat CPU 0 instructions: 9820000002 cycles: 3318839349 heartbeat IPC: 3.512 cumulative IPC: 2.959 (Simulation time: 06 hr 00 min 59 sec)
Heartbeat CPU 0 instructions: 9830000000 cycles: 3321744131 heartbeat IPC: 3.443 cumulative IPC: 2.959 (Simulation time: 06 hr 01 min 19 sec)
Heartbeat CPU 0 instructions: 9840000002 cycles: 3324603894 heartbeat IPC: 3.497 cumulative IPC: 2.96 (Simulation time: 06 hr 01 min 42 sec)
Heartbeat CPU 0 instructions: 9850000000 cycles: 3327596238 heartbeat IPC: 3.342 cumulative IPC: 2.96 (Simulation time: 06 hr 02 min 04 sec)
Heartbeat CPU 0 instructions: 9860000002 cycles: 3330327148 heartbeat IPC: 3.662 cumulative IPC: 2.961 (Simulation time: 06 hr 02 min 24 sec)
Heartbeat CPU 0 instructions: 9870000000 cycles: 3333110477 heartbeat IPC: 3.593 cumulative IPC: 2.961 (Simulation time: 06 hr 02 min 45 sec)
Heartbeat CPU 0 instructions: 9880000000 cycles: 3336026502 heartbeat IPC: 3.429 cumulative IPC: 2.962 (Simulation time: 06 hr 03 min 05 sec)
Heartbeat CPU 0 instructions: 9890000004 cycles: 3338910058 heartbeat IPC: 3.468 cumulative IPC: 2.962 (Simulation time: 06 hr 03 min 25 sec)
Heartbeat CPU 0 instructions: 9900000002 cycles: 3341739865 heartbeat IPC: 3.534 cumulative IPC: 2.963 (Simulation time: 06 hr 03 min 45 sec)
Heartbeat CPU 0 instructions: 9910000004 cycles: 3344367745 heartbeat IPC: 3.805 cumulative IPC: 2.963 (Simulation time: 06 hr 04 min 05 sec)
Heartbeat CPU 0 instructions: 9920000003 cycles: 3347313665 heartbeat IPC: 3.395 cumulative IPC: 2.964 (Simulation time: 06 hr 04 min 25 sec)
Heartbeat CPU 0 instructions: 9930000002 cycles: 3350143175 heartbeat IPC: 3.534 cumulative IPC: 2.964 (Simulation time: 06 hr 04 min 45 sec)
Heartbeat CPU 0 instructions: 9940000000 cycles: 3353025010 heartbeat IPC: 3.47 cumulative IPC: 2.964 (Simulation time: 06 hr 05 min 05 sec)
Heartbeat CPU 0 instructions: 9950000001 cycles: 3355828659 heartbeat IPC: 3.567 cumulative IPC: 2.965 (Simulation time: 06 hr 05 min 26 sec)
Heartbeat CPU 0 instructions: 9960000002 cycles: 3358793798 heartbeat IPC: 3.373 cumulative IPC: 2.965 (Simulation time: 06 hr 05 min 46 sec)
Heartbeat CPU 0 instructions: 9970000003 cycles: 3361719100 heartbeat IPC: 3.418 cumulative IPC: 2.966 (Simulation time: 06 hr 06 min 06 sec)
Heartbeat CPU 0 instructions: 9980000003 cycles: 3364569549 heartbeat IPC: 3.508 cumulative IPC: 2.966 (Simulation time: 06 hr 06 min 26 sec)
Heartbeat CPU 0 instructions: 9990000004 cycles: 3367468064 heartbeat IPC: 3.45 cumulative IPC: 2.967 (Simulation time: 06 hr 06 min 46 sec)
*** Reached end of trace: (0, "traces/600.perlbench_s-210B.champsimtrace.xz")
Heartbeat CPU 0 instructions: 10000000000 cycles: 3370263329 heartbeat IPC: 3.577 cumulative IPC: 2.967 (Simulation time: 06 hr 07 min 06 sec)
Simulation finished CPU 0 instructions: 10000000000 cycles: 3370263329 cumulative IPC: 2.967 (Simulation time: 06 hr 07 min 06 sec)
Simulation complete CPU 0 instructions: 10000000000 cycles: 3370263329 cumulative IPC: 2.967 (Simulation time: 06 hr 07 min 06 sec)

ChampSim completed all CPUs

=== Simulation ===
CPU 0 runs traces/600.perlbench_s-210B.champsimtrace.xz
Region of Interest Statistics

CPU 0 cumulative IPC: 2.967 instructions: 10000000000 cycles: 3370263329
CPU 0 Branch Prediction Accuracy: 98.36% MPKI: 2.459 Average ROB Occupancy at Mispredict: 93.48
Branch type MPKI
BRANCH_DIRECT_JUMP: 0.0522
BRANCH_INDIRECT: 0.335
BRANCH_CONDITIONAL: 1.88
BRANCH_DIRECT_CALL: 0.0144
BRANCH_INDIRECT_CALL: 0.166
BRANCH_RETURN: 0.0132

LLC TOTAL        ACCESS:    7131847 HIT:    2227552 MISS:    4904295
LLC LOAD         ACCESS:    5712581 HIT:    1331534 MISS:    4381047
LLC RFO          ACCESS:     343670 HIT:     103953 MISS:     239717
LLC PREFETCH     ACCESS:          0 HIT:          0 MISS:          0
LLC WRITE        ACCESS:     734937 HIT:     731486 MISS:       3451
LLC TRANSLATION  ACCESS:     340659 HIT:      60579 MISS:     280080
LLC PREFETCH REQUESTED:          0 ISSUED:          0 USEFUL:          0 USELESS:          0
LLC AVERAGE MISS LATENCY: 210.2 cycles
cpu0_DTLB TOTAL        ACCESS: 2304840582 HIT: 2286819353 MISS:   18021229
cpu0_DTLB LOAD         ACCESS: 2304840582 HIT: 2286819353 MISS:   18021229
cpu0_DTLB RFO          ACCESS:          0 HIT:          0 MISS:          0
cpu0_DTLB PREFETCH     ACCESS:          0 HIT:          0 MISS:          0
cpu0_DTLB WRITE        ACCESS:          0 HIT:          0 MISS:          0
cpu0_DTLB TRANSLATION  ACCESS:          0 HIT:          0 MISS:          0
cpu0_DTLB PREFETCH REQUESTED:          0 ISSUED:          0 USEFUL:          0 USELESS:          0
cpu0_DTLB AVERAGE MISS LATENCY: 8.69 cycles
cpu0_ITLB TOTAL        ACCESS:  145257986 HIT:  140854953 MISS:    4403033
cpu0_ITLB LOAD         ACCESS:  145257986 HIT:  140854953 MISS:    4403033
cpu0_ITLB RFO          ACCESS:          0 HIT:          0 MISS:          0
cpu0_ITLB PREFETCH     ACCESS:          0 HIT:          0 MISS:          0
cpu0_ITLB WRITE        ACCESS:          0 HIT:          0 MISS:          0
cpu0_ITLB TRANSLATION  ACCESS:          0 HIT:          0 MISS:          0
cpu0_ITLB PREFETCH REQUESTED:          0 ISSUED:          0 USEFUL:          0 USELESS:          0
cpu0_ITLB AVERAGE MISS LATENCY: 1.856 cycles
cpu0_L1D TOTAL        ACCESS: 3307478149 HIT: 3282471961 MISS:   25006188
cpu0_L1D LOAD         ACCESS: 1244014418 HIT: 1222888323 MISS:   21126095
cpu0_L1D RFO          ACCESS:          0 HIT:          0 MISS:          0
cpu0_L1D PREFETCH     ACCESS:          0 HIT:          0 MISS:          0
cpu0_L1D WRITE        ACCESS: 2062928963 HIT: 2059537526 MISS:    3391437
cpu0_L1D TRANSLATION  ACCESS:     534768 HIT:      46112 MISS:     488656
cpu0_L1D PREFETCH REQUESTED:          0 ISSUED:          0 USEFUL:          0 USELESS:          0
cpu0_L1D AVERAGE MISS LATENCY: 45.21 cycles
cpu0_L1I TOTAL        ACCESS:  162848104 HIT:  136823443 MISS:   26024661
cpu0_L1I LOAD         ACCESS:  162848104 HIT:  136823443 MISS:   26024661
cpu0_L1I RFO          ACCESS:          0 HIT:          0 MISS:          0
cpu0_L1I PREFETCH     ACCESS:          0 HIT:          0 MISS:          0
cpu0_L1I WRITE        ACCESS:          0 HIT:          0 MISS:          0
cpu0_L1I TRANSLATION  ACCESS:          0 HIT:          0 MISS:          0
cpu0_L1I PREFETCH REQUESTED:          0 ISSUED:          0 USEFUL:          0 USELESS:          0
cpu0_L1I AVERAGE MISS LATENCY: 8.974 cycles
cpu0_L2C TOTAL        ACCESS:   34476924 HIT:   28071581 MISS:    6405343
cpu0_L2C LOAD         ACCESS:   30676364 HIT:   24963774 MISS:    5712590
cpu0_L2C RFO          ACCESS:    1028702 HIT:     685032 MISS:     343670
cpu0_L2C PREFETCH     ACCESS:          0 HIT:          0 MISS:          0
cpu0_L2C WRITE        ACCESS:    2284597 HIT:    2276173 MISS:       8424
cpu0_L2C TRANSLATION  ACCESS:     487261 HIT:     146602 MISS:     340659
cpu0_L2C PREFETCH REQUESTED:          0 ISSUED:          0 USEFUL:          0 USELESS:          0
cpu0_L2C AVERAGE MISS LATENCY: 181.7 cycles
cpu0_STLB TOTAL        ACCESS:   13864722 HIT:   13395491 MISS:     469231
cpu0_STLB LOAD         ACCESS:   13864722 HIT:   13395491 MISS:     469231
cpu0_STLB RFO          ACCESS:          0 HIT:          0 MISS:          0
cpu0_STLB PREFETCH     ACCESS:          0 HIT:          0 MISS:          0
cpu0_STLB WRITE        ACCESS:          0 HIT:          0 MISS:          0
cpu0_STLB TRANSLATION  ACCESS:          0 HIT:          0 MISS:          0
cpu0_STLB PREFETCH REQUESTED:          0 ISSUED:          0 USEFUL:          0 USELESS:          0
cpu0_STLB AVERAGE MISS LATENCY: 173.9 cycles

DRAM Statistics

Channel 0 RQ ROW_BUFFER_HIT:    1135918
  ROW_BUFFER_MISS:    3764816
 AVG DBUS CONGESTED CYCLE: 3.826
WQ ROW_BUFFER_HIT: Channel 0 
  ROW_BUFFER_MISS:     200749
  FULL:     302010
