WARNING: physical memory size is smaller than virtual memory size.

*** ChampSim Multicore Out-of-Order Simulator ***
Warmup Instructions: 1000000000
Simulation Instructions: 500000000
Number of CPUs: 1
Page size: 4096

Off-chip DRAM Size: 4 GiB Channels: 1 Width: 64-bit Data Race: 3200 MT/s
Heartbeat CPU 0 instructions: 10000000 cycles: 2500066 heartbeat IPC: 4 cumulative IPC: 4 (Simulation time: 00 hr 00 min 30 sec)
Heartbeat CPU 0 instructions: 20000000 cycles: 5000066 heartbeat IPC: 4 cumulative IPC: 4 (Simulation time: 00 hr 01 min 03 sec)
Heartbeat CPU 0 instructions: 30000000 cycles: 7500066 heartbeat IPC: 4 cumulative IPC: 4 (Simulation time: 00 hr 01 min 40 sec)
Heartbeat CPU 0 instructions: 40000000 cycles: 10000078 heartbeat IPC: 4 cumulative IPC: 4 (Simulation time: 00 hr 02 min 18 sec)
Heartbeat CPU 0 instructions: 50000002 cycles: 12500142 heartbeat IPC: 4 cumulative IPC: 4 (Simulation time: 00 hr 02 min 55 sec)
Heartbeat CPU 0 instructions: 60000000 cycles: 15000250 heartbeat IPC: 4 cumulative IPC: 4 (Simulation time: 00 hr 03 min 32 sec)
Heartbeat CPU 0 instructions: 70000000 cycles: 17500250 heartbeat IPC: 4 cumulative IPC: 4 (Simulation time: 00 hr 04 min 09 sec)
Heartbeat CPU 0 instructions: 80000000 cycles: 20000250 heartbeat IPC: 4 cumulative IPC: 4 (Simulation time: 00 hr 04 min 46 sec)
Heartbeat CPU 0 instructions: 90000003 cycles: 22500261 heartbeat IPC: 4 cumulative IPC: 4 (Simulation time: 00 hr 05 min 23 sec)
Heartbeat CPU 0 instructions: 100000001 cycles: 25000576 heartbeat IPC: 3.999 cumulative IPC: 4 (Simulation time: 00 hr 06 min 00 sec)
Heartbeat CPU 0 instructions: 110000001 cycles: 27500576 heartbeat IPC: 4 cumulative IPC: 4 (Simulation time: 00 hr 06 min 37 sec)
Heartbeat CPU 0 instructions: 120000001 cycles: 30000576 heartbeat IPC: 4 cumulative IPC: 4 (Simulation time: 00 hr 07 min 14 sec)
Heartbeat CPU 0 instructions: 130000003 cycles: 32500625 heartbeat IPC: 4 cumulative IPC: 4 (Simulation time: 00 hr 07 min 51 sec)
Heartbeat CPU 0 instructions: 140000001 cycles: 35000674 heartbeat IPC: 4 cumulative IPC: 4 (Simulation time: 00 hr 08 min 28 sec)
Heartbeat CPU 0 instructions: 150000001 cycles: 37500674 heartbeat IPC: 4 cumulative IPC: 4 (Simulation time: 00 hr 09 min 05 sec)
Heartbeat CPU 0 instructions: 160000001 cycles: 40000674 heartbeat IPC: 4 cumulative IPC: 4 (Simulation time: 00 hr 09 min 42 sec)
Heartbeat CPU 0 instructions: 170000000 cycles: 42501018 heartbeat IPC: 3.999 cumulative IPC: 4 (Simulation time: 00 hr 10 min 19 sec)
Heartbeat CPU 0 instructions: 180000000 cycles: 45001018 heartbeat IPC: 4 cumulative IPC: 4 (Simulation time: 00 hr 10 min 57 sec)
Heartbeat CPU 0 instructions: 190000000 cycles: 47501018 heartbeat IPC: 4 cumulative IPC: 4 (Simulation time: 00 hr 11 min 34 sec)
Heartbeat CPU 0 instructions: 200000000 cycles: 50001051 heartbeat IPC: 4 cumulative IPC: 4 (Simulation time: 00 hr 12 min 11 sec)
Heartbeat CPU 0 instructions: 210000000 cycles: 52501051 heartbeat IPC: 4 cumulative IPC: 4 (Simulation time: 00 hr 12 min 48 sec)
Heartbeat CPU 0 instructions: 220000000 cycles: 55001051 heartbeat IPC: 4 cumulative IPC: 4 (Simulation time: 00 hr 13 min 25 sec)
Heartbeat CPU 0 instructions: 230000000 cycles: 57501051 heartbeat IPC: 4 cumulative IPC: 4 (Simulation time: 00 hr 14 min 03 sec)
Heartbeat CPU 0 instructions: 240000000 cycles: 60001210 heartbeat IPC: 4 cumulative IPC: 4 (Simulation time: 00 hr 14 min 40 sec)
Heartbeat CPU 0 instructions: 250000003 cycles: 62501392 heartbeat IPC: 4 cumulative IPC: 4 (Simulation time: 00 hr 15 min 18 sec)
Heartbeat CPU 0 instructions: 260000003 cycles: 65001392 heartbeat IPC: 4 cumulative IPC: 4 (Simulation time: 00 hr 15 min 55 sec)
Heartbeat CPU 0 instructions: 270000003 cycles: 67501392 heartbeat IPC: 4 cumulative IPC: 4 (Simulation time: 00 hr 16 min 32 sec)
Heartbeat CPU 0 instructions: 280000003 cycles: 70001392 heartbeat IPC: 4 cumulative IPC: 4 (Simulation time: 00 hr 17 min 09 sec)
Heartbeat CPU 0 instructions: 290000003 cycles: 72501553 heartbeat IPC: 4 cumulative IPC: 4 (Simulation time: 00 hr 17 min 46 sec)
Heartbeat CPU 0 instructions: 300000003 cycles: 75001553 heartbeat IPC: 4 cumulative IPC: 4 (Simulation time: 00 hr 18 min 23 sec)
Heartbeat CPU 0 instructions: 310000002 cycles: 77501759 heartbeat IPC: 4 cumulative IPC: 4 (Simulation time: 00 hr 19 min 00 sec)
Heartbeat CPU 0 instructions: 320000003 cycles: 80002006 heartbeat IPC: 4 cumulative IPC: 4 (Simulation time: 00 hr 19 min 37 sec)
Heartbeat CPU 0 instructions: 330000002 cycles: 82504637 heartbeat IPC: 3.996 cumulative IPC: 4 (Simulation time: 00 hr 20 min 14 sec)
Heartbeat CPU 0 instructions: 340000000 cycles: 85004756 heartbeat IPC: 4 cumulative IPC: 4 (Simulation time: 00 hr 20 min 52 sec)
Heartbeat CPU 0 instructions: 350000000 cycles: 87504756 heartbeat IPC: 4 cumulative IPC: 4 (Simulation time: 00 hr 21 min 28 sec)
Heartbeat CPU 0 instructions: 360000001 cycles: 90012050 heartbeat IPC: 3.988 cumulative IPC: 3.999 (Simulation time: 00 hr 22 min 05 sec)
Heartbeat CPU 0 instructions: 370000001 cycles: 92512050 heartbeat IPC: 4 cumulative IPC: 3.999 (Simulation time: 00 hr 22 min 43 sec)
Heartbeat CPU 0 instructions: 380000002 cycles: 95012062 heartbeat IPC: 4 cumulative IPC: 3.999 (Simulation time: 00 hr 23 min 20 sec)
Heartbeat CPU 0 instructions: 390000003 cycles: 97512076 heartbeat IPC: 4 cumulative IPC: 4 (Simulation time: 00 hr 23 min 57 sec)
Heartbeat CPU 0 instructions: 400000003 cycles: 100012076 heartbeat IPC: 4 cumulative IPC: 4 (Simulation time: 00 hr 24 min 34 sec)
Heartbeat CPU 0 instructions: 410000003 cycles: 102512076 heartbeat IPC: 4 cumulative IPC: 4 (Simulation time: 00 hr 25 min 11 sec)
Heartbeat CPU 0 instructions: 420000003 cycles: 105012131 heartbeat IPC: 4 cumulative IPC: 4 (Simulation time: 00 hr 25 min 48 sec)
Heartbeat CPU 0 instructions: 430000001 cycles: 107512174 heartbeat IPC: 4 cumulative IPC: 4 (Simulation time: 00 hr 26 min 25 sec)
Heartbeat CPU 0 instructions: 440000003 cycles: 110019524 heartbeat IPC: 3.988 cumulative IPC: 3.999 (Simulation time: 00 hr 27 min 02 sec)
Heartbeat CPU 0 instructions: 450000003 cycles: 112519524 heartbeat IPC: 4 cumulative IPC: 3.999 (Simulation time: 00 hr 27 min 39 sec)
Heartbeat CPU 0 instructions: 460000003 cycles: 115019524 heartbeat IPC: 4 cumulative IPC: 3.999 (Simulation time: 00 hr 28 min 01 sec)
Heartbeat CPU 0 instructions: 470000003 cycles: 117528806 heartbeat IPC: 3.985 cumulative IPC: 3.999 (Simulation time: 00 hr 28 min 22 sec)
Heartbeat CPU 0 instructions: 480000003 cycles: 120032742 heartbeat IPC: 3.994 cumulative IPC: 3.999 (Simulation time: 00 hr 28 min 43 sec)
Heartbeat CPU 0 instructions: 490000000 cycles: 122533004 heartbeat IPC: 4 cumulative IPC: 3.999 (Simulation time: 00 hr 29 min 04 sec)
Heartbeat CPU 0 instructions: 500000001 cycles: 125033152 heartbeat IPC: 4 cumulative IPC: 3.999 (Simulation time: 00 hr 29 min 25 sec)
Heartbeat CPU 0 instructions: 510000002 cycles: 127533611 heartbeat IPC: 3.999 cumulative IPC: 3.999 (Simulation time: 00 hr 29 min 47 sec)
Heartbeat CPU 0 instructions: 520000002 cycles: 130042874 heartbeat IPC: 3.985 cumulative IPC: 3.999 (Simulation time: 00 hr 30 min 09 sec)
Heartbeat CPU 0 instructions: 530000003 cycles: 132543243 heartbeat IPC: 3.999 cumulative IPC: 3.999 (Simulation time: 00 hr 30 min 32 sec)
Heartbeat CPU 0 instructions: 540000000 cycles: 135053968 heartbeat IPC: 3.983 cumulative IPC: 3.998 (Simulation time: 00 hr 30 min 53 sec)
Heartbeat CPU 0 instructions: 550000001 cycles: 137558995 heartbeat IPC: 3.992 cumulative IPC: 3.998 (Simulation time: 00 hr 31 min 15 sec)
Heartbeat CPU 0 instructions: 560000001 cycles: 140058995 heartbeat IPC: 4 cumulative IPC: 3.998 (Simulation time: 00 hr 31 min 35 sec)
Heartbeat CPU 0 instructions: 570000001 cycles: 142558995 heartbeat IPC: 4 cumulative IPC: 3.998 (Simulation time: 00 hr 31 min 56 sec)
Heartbeat CPU 0 instructions: 580000001 cycles: 145058995 heartbeat IPC: 4 cumulative IPC: 3.998 (Simulation time: 00 hr 32 min 17 sec)
Heartbeat CPU 0 instructions: 590000000 cycles: 147559793 heartbeat IPC: 3.999 cumulative IPC: 3.998 (Simulation time: 00 hr 32 min 37 sec)
Heartbeat CPU 0 instructions: 600000003 cycles: 150060598 heartbeat IPC: 3.999 cumulative IPC: 3.998 (Simulation time: 00 hr 32 min 59 sec)
Heartbeat CPU 0 instructions: 610000002 cycles: 152561693 heartbeat IPC: 3.998 cumulative IPC: 3.998 (Simulation time: 00 hr 33 min 20 sec)
Heartbeat CPU 0 instructions: 620000002 cycles: 155065382 heartbeat IPC: 3.994 cumulative IPC: 3.998 (Simulation time: 00 hr 33 min 42 sec)
Heartbeat CPU 0 instructions: 630000000 cycles: 157566800 heartbeat IPC: 3.998 cumulative IPC: 3.998 (Simulation time: 00 hr 34 min 03 sec)
Heartbeat CPU 0 instructions: 640000002 cycles: 160066950 heartbeat IPC: 4 cumulative IPC: 3.998 (Simulation time: 00 hr 34 min 24 sec)
Heartbeat CPU 0 instructions: 650000000 cycles: 162567332 heartbeat IPC: 3.999 cumulative IPC: 3.998 (Simulation time: 00 hr 34 min 59 sec)
Heartbeat CPU 0 instructions: 660000003 cycles: 165069850 heartbeat IPC: 3.996 cumulative IPC: 3.998 (Simulation time: 00 hr 35 min 37 sec)
Heartbeat CPU 0 instructions: 670000002 cycles: 167569967 heartbeat IPC: 4 cumulative IPC: 3.998 (Simulation time: 00 hr 36 min 14 sec)
Heartbeat CPU 0 instructions: 680000003 cycles: 170070159 heartbeat IPC: 4 cumulative IPC: 3.998 (Simulation time: 00 hr 36 min 46 sec)
Heartbeat CPU 0 instructions: 690000000 cycles: 172598701 heartbeat IPC: 3.955 cumulative IPC: 3.998 (Simulation time: 00 hr 37 min 21 sec)
Heartbeat CPU 0 instructions: 700000000 cycles: 175098701 heartbeat IPC: 4 cumulative IPC: 3.998 (Simulation time: 00 hr 37 min 57 sec)
Heartbeat CPU 0 instructions: 710000003 cycles: 177598925 heartbeat IPC: 4 cumulative IPC: 3.998 (Simulation time: 00 hr 38 min 33 sec)
Heartbeat CPU 0 instructions: 720000002 cycles: 180099127 heartbeat IPC: 4 cumulative IPC: 3.998 (Simulation time: 00 hr 39 min 09 sec)
Heartbeat CPU 0 instructions: 730000002 cycles: 182599127 heartbeat IPC: 4 cumulative IPC: 3.998 (Simulation time: 00 hr 39 min 46 sec)
Heartbeat CPU 0 instructions: 740000002 cycles: 185099127 heartbeat IPC: 4 cumulative IPC: 3.998 (Simulation time: 00 hr 40 min 12 sec)
Heartbeat CPU 0 instructions: 750000002 cycles: 187599579 heartbeat IPC: 3.999 cumulative IPC: 3.998 (Simulation time: 00 hr 40 min 33 sec)
Heartbeat CPU 0 instructions: 760000003 cycles: 190100017 heartbeat IPC: 3.999 cumulative IPC: 3.998 (Simulation time: 00 hr 40 min 54 sec)
Heartbeat CPU 0 instructions: 770000002 cycles: 192600151 heartbeat IPC: 4 cumulative IPC: 3.998 (Simulation time: 00 hr 41 min 16 sec)
Heartbeat CPU 0 instructions: 780000002 cycles: 195100151 heartbeat IPC: 4 cumulative IPC: 3.998 (Simulation time: 00 hr 41 min 38 sec)
Heartbeat CPU 0 instructions: 790000002 cycles: 197600566 heartbeat IPC: 3.999 cumulative IPC: 3.998 (Simulation time: 00 hr 41 min 59 sec)
Heartbeat CPU 0 instructions: 800000003 cycles: 200100874 heartbeat IPC: 4 cumulative IPC: 3.998 (Simulation time: 00 hr 42 min 21 sec)
Heartbeat CPU 0 instructions: 810000001 cycles: 202601641 heartbeat IPC: 3.999 cumulative IPC: 3.998 (Simulation time: 00 hr 42 min 43 sec)
Heartbeat CPU 0 instructions: 820000001 cycles: 205101641 heartbeat IPC: 4 cumulative IPC: 3.998 (Simulation time: 00 hr 43 min 07 sec)
Heartbeat CPU 0 instructions: 830000001 cycles: 207601641 heartbeat IPC: 4 cumulative IPC: 3.998 (Simulation time: 00 hr 43 min 28 sec)
Heartbeat CPU 0 instructions: 840000002 cycles: 210101846 heartbeat IPC: 4 cumulative IPC: 3.998 (Simulation time: 00 hr 43 min 49 sec)
Heartbeat CPU 0 instructions: 850000003 cycles: 212603324 heartbeat IPC: 3.998 cumulative IPC: 3.998 (Simulation time: 00 hr 44 min 10 sec)
Heartbeat CPU 0 instructions: 860000003 cycles: 215103324 heartbeat IPC: 4 cumulative IPC: 3.998 (Simulation time: 00 hr 44 min 30 sec)
Heartbeat CPU 0 instructions: 870000003 cycles: 217603324 heartbeat IPC: 4 cumulative IPC: 3.998 (Simulation time: 00 hr 44 min 52 sec)
Heartbeat CPU 0 instructions: 880000002 cycles: 220104179 heartbeat IPC: 3.999 cumulative IPC: 3.998 (Simulation time: 00 hr 45 min 13 sec)
Heartbeat CPU 0 instructions: 890000002 cycles: 222604179 heartbeat IPC: 4 cumulative IPC: 3.998 (Simulation time: 00 hr 45 min 33 sec)
Heartbeat CPU 0 instructions: 900000002 cycles: 225104429 heartbeat IPC: 4 cumulative IPC: 3.998 (Simulation time: 00 hr 45 min 54 sec)
Heartbeat CPU 0 instructions: 910000000 cycles: 227604825 heartbeat IPC: 3.999 cumulative IPC: 3.998 (Simulation time: 00 hr 46 min 15 sec)
Heartbeat CPU 0 instructions: 920000001 cycles: 230105243 heartbeat IPC: 3.999 cumulative IPC: 3.998 (Simulation time: 00 hr 46 min 35 sec)
Heartbeat CPU 0 instructions: 930000003 cycles: 232605500 heartbeat IPC: 4 cumulative IPC: 3.998 (Simulation time: 00 hr 46 min 56 sec)
Heartbeat CPU 0 instructions: 940000003 cycles: 235105500 heartbeat IPC: 4 cumulative IPC: 3.998 (Simulation time: 00 hr 47 min 17 sec)
Heartbeat CPU 0 instructions: 950000003 cycles: 237605857 heartbeat IPC: 3.999 cumulative IPC: 3.998 (Simulation time: 00 hr 47 min 38 sec)
Heartbeat CPU 0 instructions: 960000000 cycles: 240106668 heartbeat IPC: 3.999 cumulative IPC: 3.998 (Simulation time: 00 hr 47 min 58 sec)
Heartbeat CPU 0 instructions: 970000003 cycles: 242606729 heartbeat IPC: 4 cumulative IPC: 3.998 (Simulation time: 00 hr 48 min 18 sec)
Heartbeat CPU 0 instructions: 980000002 cycles: 245106733 heartbeat IPC: 4 cumulative IPC: 3.998 (Simulation time: 00 hr 48 min 40 sec)
Heartbeat CPU 0 instructions: 990000003 cycles: 247608293 heartbeat IPC: 3.998 cumulative IPC: 3.998 (Simulation time: 00 hr 49 min 01 sec)
Heartbeat CPU 0 instructions: 1000000003 cycles: 250108293 heartbeat IPC: 4 cumulative IPC: 3.998 (Simulation time: 00 hr 49 min 23 sec)
Warmup finished CPU 0 instructions: 1000000003 cycles: 250108294 cumulative IPC: 3.998 (Simulation time: 00 hr 49 min 23 sec)
Warmup complete CPU 0 instructions: 1000000003 cycles: 250108294 cumulative IPC: 3.998 (Simulation time: 00 hr 49 min 23 sec)
Heartbeat CPU 0 instructions: 1010000001 cycles: 253174014 heartbeat IPC: 3.262 cumulative IPC: 3.262 (Simulation time: 00 hr 49 min 48 sec)
Heartbeat CPU 0 instructions: 1020000003 cycles: 256125937 heartbeat IPC: 3.388 cumulative IPC: 3.324 (Simulation time: 00 hr 50 min 13 sec)
Heartbeat CPU 0 instructions: 1030000000 cycles: 259151040 heartbeat IPC: 3.306 cumulative IPC: 3.318 (Simulation time: 00 hr 50 min 39 sec)
Heartbeat CPU 0 instructions: 1040000000 cycles: 262150687 heartbeat IPC: 3.334 cumulative IPC: 3.322 (Simulation time: 00 hr 51 min 11 sec)
Heartbeat CPU 0 instructions: 1050000000 cycles: 265108806 heartbeat IPC: 3.381 cumulative IPC: 3.333 (Simulation time: 00 hr 51 min 49 sec)
Heartbeat CPU 0 instructions: 1060000001 cycles: 268126057 heartbeat IPC: 3.314 cumulative IPC: 3.33 (Simulation time: 00 hr 52 min 32 sec)
Heartbeat CPU 0 instructions: 1070000000 cycles: 271251183 heartbeat IPC: 3.2 cumulative IPC: 3.311 (Simulation time: 00 hr 53 min 16 sec)
Heartbeat CPU 0 instructions: 1080000003 cycles: 274230363 heartbeat IPC: 3.357 cumulative IPC: 3.316 (Simulation time: 00 hr 53 min 56 sec)
Heartbeat CPU 0 instructions: 1090000000 cycles: 277211576 heartbeat IPC: 3.354 cumulative IPC: 3.321 (Simulation time: 00 hr 54 min 22 sec)
Heartbeat CPU 0 instructions: 1100000000 cycles: 280299045 heartbeat IPC: 3.239 cumulative IPC: 3.312 (Simulation time: 00 hr 54 min 48 sec)
Heartbeat CPU 0 instructions: 1110000004 cycles: 283304614 heartbeat IPC: 3.327 cumulative IPC: 3.314 (Simulation time: 00 hr 55 min 15 sec)
Heartbeat CPU 0 instructions: 1120000000 cycles: 286240973 heartbeat IPC: 3.406 cumulative IPC: 3.321 (Simulation time: 00 hr 55 min 41 sec)
Heartbeat CPU 0 instructions: 1130000002 cycles: 288886521 heartbeat IPC: 3.78 cumulative IPC: 3.352 (Simulation time: 00 hr 56 min 07 sec)
Heartbeat CPU 0 instructions: 1140000002 cycles: 292015882 heartbeat IPC: 3.196 cumulative IPC: 3.341 (Simulation time: 00 hr 56 min 33 sec)
Heartbeat CPU 0 instructions: 1150000000 cycles: 295020766 heartbeat IPC: 3.328 cumulative IPC: 3.34 (Simulation time: 00 hr 56 min 58 sec)
Heartbeat CPU 0 instructions: 1160000000 cycles: 298038467 heartbeat IPC: 3.314 cumulative IPC: 3.338 (Simulation time: 00 hr 57 min 24 sec)
Heartbeat CPU 0 instructions: 1170000003 cycles: 300962406 heartbeat IPC: 3.42 cumulative IPC: 3.343 (Simulation time: 00 hr 57 min 52 sec)
Heartbeat CPU 0 instructions: 1180000004 cycles: 304055470 heartbeat IPC: 3.233 cumulative IPC: 3.337 (Simulation time: 00 hr 58 min 20 sec)
Heartbeat CPU 0 instructions: 1190000004 cycles: 307164947 heartbeat IPC: 3.216 cumulative IPC: 3.33 (Simulation time: 00 hr 58 min 52 sec)
Heartbeat CPU 0 instructions: 1200000000 cycles: 309911107 heartbeat IPC: 3.641 cumulative IPC: 3.344 (Simulation time: 00 hr 59 min 34 sec)
Heartbeat CPU 0 instructions: 1210000003 cycles: 312867870 heartbeat IPC: 3.382 cumulative IPC: 3.346 (Simulation time: 01 hr 00 min 18 sec)
Heartbeat CPU 0 instructions: 1220000001 cycles: 317015156 heartbeat IPC: 2.411 cumulative IPC: 3.288 (Simulation time: 01 hr 01 min 05 sec)
Heartbeat CPU 0 instructions: 1230000001 cycles: 321679448 heartbeat IPC: 2.144 cumulative IPC: 3.214 (Simulation time: 01 hr 01 min 38 sec)
Heartbeat CPU 0 instructions: 1240000000 cycles: 327389007 heartbeat IPC: 1.751 cumulative IPC: 3.106 (Simulation time: 01 hr 02 min 13 sec)
Heartbeat CPU 0 instructions: 1250000002 cycles: 333393779 heartbeat IPC: 1.665 cumulative IPC: 3.002 (Simulation time: 01 hr 02 min 48 sec)
Heartbeat CPU 0 instructions: 1260000002 cycles: 336698329 heartbeat IPC: 3.026 cumulative IPC: 3.003 (Simulation time: 01 hr 03 min 14 sec)
Heartbeat CPU 0 instructions: 1270000003 cycles: 339814192 heartbeat IPC: 3.209 cumulative IPC: 3.01 (Simulation time: 01 hr 03 min 39 sec)
Heartbeat CPU 0 instructions: 1280000001 cycles: 343150490 heartbeat IPC: 2.997 cumulative IPC: 3.009 (Simulation time: 01 hr 04 min 05 sec)
Heartbeat CPU 0 instructions: 1290000002 cycles: 346401919 heartbeat IPC: 3.076 cumulative IPC: 3.012 (Simulation time: 01 hr 04 min 31 sec)
Heartbeat CPU 0 instructions: 1300000001 cycles: 349647230 heartbeat IPC: 3.081 cumulative IPC: 3.014 (Simulation time: 01 hr 04 min 57 sec)
Heartbeat CPU 0 instructions: 1310000000 cycles: 352963531 heartbeat IPC: 3.015 cumulative IPC: 3.014 (Simulation time: 01 hr 05 min 22 sec)
Heartbeat CPU 0 instructions: 1320000003 cycles: 359296470 heartbeat IPC: 1.579 cumulative IPC: 2.931 (Simulation time: 01 hr 06 min 00 sec)
Heartbeat CPU 0 instructions: 1330000002 cycles: 365752172 heartbeat IPC: 1.549 cumulative IPC: 2.854 (Simulation time: 01 hr 06 min 37 sec)
Heartbeat CPU 0 instructions: 1340000002 cycles: 371361469 heartbeat IPC: 1.783 cumulative IPC: 2.804 (Simulation time: 01 hr 07 min 12 sec)
Heartbeat CPU 0 instructions: 1350000001 cycles: 374745061 heartbeat IPC: 2.955 cumulative IPC: 2.808 (Simulation time: 01 hr 07 min 38 sec)
Heartbeat CPU 0 instructions: 1360000001 cycles: 378203602 heartbeat IPC: 2.891 cumulative IPC: 2.81 (Simulation time: 01 hr 08 min 04 sec)
Heartbeat CPU 0 instructions: 1370000002 cycles: 381645465 heartbeat IPC: 2.905 cumulative IPC: 2.813 (Simulation time: 01 hr 08 min 31 sec)
Heartbeat CPU 0 instructions: 1380000000 cycles: 388001040 heartbeat IPC: 1.573 cumulative IPC: 2.756 (Simulation time: 01 hr 09 min 10 sec)
Heartbeat CPU 0 instructions: 1390000003 cycles: 394540204 heartbeat IPC: 1.529 cumulative IPC: 2.7 (Simulation time: 01 hr 09 min 50 sec)
Heartbeat CPU 0 instructions: 1400000001 cycles: 399504709 heartbeat IPC: 2.014 cumulative IPC: 2.677 (Simulation time: 01 hr 10 min 25 sec)
Heartbeat CPU 0 instructions: 1410000003 cycles: 402678082 heartbeat IPC: 3.151 cumulative IPC: 2.687 (Simulation time: 01 hr 10 min 51 sec)
Heartbeat CPU 0 instructions: 1420000002 cycles: 405761006 heartbeat IPC: 3.244 cumulative IPC: 2.698 (Simulation time: 01 hr 11 min 16 sec)
Heartbeat CPU 0 instructions: 1430000001 cycles: 408849285 heartbeat IPC: 3.238 cumulative IPC: 2.709 (Simulation time: 01 hr 11 min 41 sec)
Heartbeat CPU 0 instructions: 1440000002 cycles: 411806162 heartbeat IPC: 3.382 cumulative IPC: 2.721 (Simulation time: 01 hr 12 min 06 sec)
Heartbeat CPU 0 instructions: 1450000000 cycles: 414929363 heartbeat IPC: 3.202 cumulative IPC: 2.73 (Simulation time: 01 hr 12 min 31 sec)
Heartbeat CPU 0 instructions: 1460000000 cycles: 418022013 heartbeat IPC: 3.233 cumulative IPC: 2.74 (Simulation time: 01 hr 12 min 56 sec)
Heartbeat CPU 0 instructions: 1470000004 cycles: 421173705 heartbeat IPC: 3.173 cumulative IPC: 2.747 (Simulation time: 01 hr 13 min 20 sec)
Heartbeat CPU 0 instructions: 1480000002 cycles: 424229393 heartbeat IPC: 3.273 cumulative IPC: 2.757 (Simulation time: 01 hr 13 min 44 sec)
Heartbeat CPU 0 instructions: 1490000002 cycles: 427283973 heartbeat IPC: 3.274 cumulative IPC: 2.766 (Simulation time: 01 hr 14 min 08 sec)
Heartbeat CPU 0 instructions: 1500000003 cycles: 430397600 heartbeat IPC: 3.212 cumulative IPC: 2.773 (Simulation time: 01 hr 14 min 32 sec)
Simulation finished CPU 0 instructions: 500000000 cycles: 180289307 cumulative IPC: 2.773 (Simulation time: 01 hr 14 min 32 sec)
Simulation complete CPU 0 instructions: 500000000 cycles: 180289307 cumulative IPC: 2.773 (Simulation time: 01 hr 14 min 32 sec)

ChampSim completed all CPUs

=== Simulation ===
CPU 0 runs traces/600.perlbench_s-210B.champsimtrace.xz
Region of Interest Statistics

CPU 0 cumulative IPC: 2.773 instructions: 500000000 cycles: 180289307
CPU 0 Branch Prediction Accuracy: 97.68% MPKI: 3.486 Average ROB Occupancy at Mispredict: 76.61
Branch type MPKI
BRANCH_DIRECT_JUMP: 0.0578
BRANCH_INDIRECT: 0.296
BRANCH_CONDITIONAL: 2.95
BRANCH_DIRECT_CALL: 0.0136
BRANCH_INDIRECT_CALL: 0.154
BRANCH_RETURN: 0.0117

LLC TOTAL        ACCESS:     353564 HIT:     105869 MISS:     247695
LLC LOAD         ACCESS:     283936 HIT:      61978 MISS:     221958
LLC RFO          ACCESS:      16481 HIT:       5016 MISS:      11465
LLC PREFETCH     ACCESS:          0 HIT:          0 MISS:          0
LLC WRITE        ACCESS:      35772 HIT:      35569 MISS:        203
LLC TRANSLATION  ACCESS:      17375 HIT:       3306 MISS:      14069
LLC PREFETCH REQUESTED:          0 ISSUED:          0 USEFUL:          0 USELESS:          0
LLC AVERAGE MISS LATENCY: 200.6 cycles
cpu0_DTLB TOTAL        ACCESS:  117230742 HIT:  116412025 MISS:     818717
cpu0_DTLB LOAD         ACCESS:  117230742 HIT:  116412025 MISS:     818717
cpu0_DTLB RFO          ACCESS:          0 HIT:          0 MISS:          0
cpu0_DTLB PREFETCH     ACCESS:          0 HIT:          0 MISS:          0
cpu0_DTLB WRITE        ACCESS:          0 HIT:          0 MISS:          0
cpu0_DTLB TRANSLATION  ACCESS:          0 HIT:          0 MISS:          0
cpu0_DTLB PREFETCH REQUESTED:          0 ISSUED:          0 USEFUL:          0 USELESS:          0
cpu0_DTLB AVERAGE MISS LATENCY: 9.08 cycles
cpu0_ITLB TOTAL        ACCESS:    6524918 HIT:    6338699 MISS:     186219
cpu0_ITLB LOAD         ACCESS:    6524918 HIT:    6338699 MISS:     186219
cpu0_ITLB RFO          ACCESS:          0 HIT:          0 MISS:          0
cpu0_ITLB PREFETCH     ACCESS:          0 HIT:          0 MISS:          0
cpu0_ITLB WRITE        ACCESS:          0 HIT:          0 MISS:          0
cpu0_ITLB TRANSLATION  ACCESS:          0 HIT:          0 MISS:          0
cpu0_ITLB PREFETCH REQUESTED:          0 ISSUED:          0 USEFUL:          0 USELESS:          0
cpu0_ITLB AVERAGE MISS LATENCY: 2.053 cycles
cpu0_L1D TOTAL        ACCESS:  168239348 HIT:  167100365 MISS:    1138983
cpu0_L1D LOAD         ACCESS:   65736323 HIT:   64782557 MISS:     953766
cpu0_L1D RFO          ACCESS:          0 HIT:          0 MISS:          0
cpu0_L1D PREFETCH     ACCESS:          0 HIT:          0 MISS:          0
cpu0_L1D WRITE        ACCESS:  102476215 HIT:  102315551 MISS:     160664
cpu0_L1D TRANSLATION  ACCESS:      26810 HIT:       2257 MISS:      24553
cpu0_L1D PREFETCH REQUESTED:          0 ISSUED:          0 USEFUL:          0 USELESS:          0
cpu0_L1D AVERAGE MISS LATENCY: 49.21 cycles
cpu0_L1I TOTAL        ACCESS:    7294973 HIT:    6144163 MISS:    1150810
cpu0_L1I LOAD         ACCESS:    7294973 HIT:    6144163 MISS:    1150810
cpu0_L1I RFO          ACCESS:          0 HIT:          0 MISS:          0
cpu0_L1I PREFETCH     ACCESS:          0 HIT:          0 MISS:          0
cpu0_L1I WRITE        ACCESS:          0 HIT:          0 MISS:          0
cpu0_L1I TRANSLATION  ACCESS:          0 HIT:          0 MISS:          0
cpu0_L1I PREFETCH REQUESTED:          0 ISSUED:          0 USEFUL:          0 USELESS:          0
cpu0_L1I AVERAGE MISS LATENCY: 9.334 cycles
cpu0_L2C TOTAL        ACCESS:    1564007 HIT:    1245868 MISS:     318139
cpu0_L2C LOAD         ACCESS:    1387082 HIT:    1103146 MISS:     283936
cpu0_L2C RFO          ACCESS:      48614 HIT:      32133 MISS:      16481
cpu0_L2C PREFETCH     ACCESS:          0 HIT:          0 MISS:          0
cpu0_L2C WRITE        ACCESS:     103825 HIT:     103478 MISS:        347
cpu0_L2C TRANSLATION  ACCESS:      24486 HIT:       7111 MISS:      17375
cpu0_L2C PREFETCH REQUESTED:          0 ISSUED:          0 USEFUL:          0 USELESS:          0
cpu0_L2C AVERAGE MISS LATENCY: 176.9 cycles
cpu0_STLB TOTAL        ACCESS:     627071 HIT:     603581 MISS:      23490
cpu0_STLB LOAD         ACCESS:     627071 HIT:     603581 MISS:      23490
cpu0_STLB RFO          ACCESS:          0 HIT:          0 MISS:          0
cpu0_STLB PREFETCH     ACCESS:          0 HIT:          0 MISS:          0
cpu0_STLB WRITE        ACCESS:          0 HIT:          0 MISS:          0
cpu0_STLB TRANSLATION  ACCESS:          0 HIT:          0 MISS:          0
cpu0_STLB PREFETCH REQUESTED:          0 ISSUED:          0 USEFUL:          0 USELESS:          0
cpu0_STLB AVERAGE MISS LATENCY: 170.2 cycles

DRAM Statistics

Channel 0 RQ ROW_BUFFER_HIT:      57095
  ROW_BUFFER_MISS:     190396
 AVG DBUS CONGESTED CYCLE: 3.804
WQ ROW_BUFFER_HIT: Channel 0 
  ROW_BUFFER_MISS:      11258
  FULL:      13981
