WARNING: physical memory size is smaller than virtual memory size.

*** ChampSim Multicore Out-of-Order Simulator ***
Warmup Instructions: 1000000000
Simulation Instructions: 500000000
Number of CPUs: 1
Page size: 4096

Off-chip DRAM Size: 4 GiB Channels: 1 Width: 64-bit Data Race: 3200 MT/s
Heartbeat CPU 0 instructions: 10000000 cycles: 2500066 heartbeat IPC: 4 cumulative IPC: 4 (Simulation time: 00 hr 00 min 40 sec)
Heartbeat CPU 0 instructions: 20000000 cycles: 5000066 heartbeat IPC: 4 cumulative IPC: 4 (Simulation time: 00 hr 01 min 20 sec)
Heartbeat CPU 0 instructions: 30000000 cycles: 7500066 heartbeat IPC: 4 cumulative IPC: 4 (Simulation time: 00 hr 02 min 01 sec)
Heartbeat CPU 0 instructions: 40000000 cycles: 10000066 heartbeat IPC: 4 cumulative IPC: 4 (Simulation time: 00 hr 02 min 40 sec)
Heartbeat CPU 0 instructions: 50000002 cycles: 12500114 heartbeat IPC: 4 cumulative IPC: 4 (Simulation time: 00 hr 03 min 20 sec)
Heartbeat CPU 0 instructions: 60000000 cycles: 15000220 heartbeat IPC: 4 cumulative IPC: 4 (Simulation time: 00 hr 03 min 59 sec)
Heartbeat CPU 0 instructions: 70000000 cycles: 17500220 heartbeat IPC: 4 cumulative IPC: 4 (Simulation time: 00 hr 04 min 39 sec)
Heartbeat CPU 0 instructions: 80000000 cycles: 20000220 heartbeat IPC: 4 cumulative IPC: 4 (Simulation time: 00 hr 05 min 20 sec)
Heartbeat CPU 0 instructions: 90000000 cycles: 22500220 heartbeat IPC: 4 cumulative IPC: 4 (Simulation time: 00 hr 06 min 02 sec)
Heartbeat CPU 0 instructions: 100000001 cycles: 25000535 heartbeat IPC: 3.999 cumulative IPC: 4 (Simulation time: 00 hr 06 min 43 sec)
Heartbeat CPU 0 instructions: 110000001 cycles: 27500535 heartbeat IPC: 4 cumulative IPC: 4 (Simulation time: 00 hr 07 min 25 sec)
Heartbeat CPU 0 instructions: 120000001 cycles: 30000535 heartbeat IPC: 4 cumulative IPC: 4 (Simulation time: 00 hr 08 min 06 sec)
Heartbeat CPU 0 instructions: 130000003 cycles: 32500581 heartbeat IPC: 4 cumulative IPC: 4 (Simulation time: 00 hr 08 min 44 sec)
Heartbeat CPU 0 instructions: 140000001 cycles: 35000627 heartbeat IPC: 4 cumulative IPC: 4 (Simulation time: 00 hr 09 min 23 sec)
Heartbeat CPU 0 instructions: 150000001 cycles: 37500627 heartbeat IPC: 4 cumulative IPC: 4 (Simulation time: 00 hr 10 min 02 sec)
Heartbeat CPU 0 instructions: 160000001 cycles: 40000627 heartbeat IPC: 4 cumulative IPC: 4 (Simulation time: 00 hr 10 min 42 sec)
Heartbeat CPU 0 instructions: 170000000 cycles: 42500957 heartbeat IPC: 3.999 cumulative IPC: 4 (Simulation time: 00 hr 11 min 22 sec)
Heartbeat CPU 0 instructions: 180000000 cycles: 45000957 heartbeat IPC: 4 cumulative IPC: 4 (Simulation time: 00 hr 12 min 03 sec)
Heartbeat CPU 0 instructions: 190000000 cycles: 47500957 heartbeat IPC: 4 cumulative IPC: 4 (Simulation time: 00 hr 12 min 43 sec)
Heartbeat CPU 0 instructions: 200000000 cycles: 50000987 heartbeat IPC: 4 cumulative IPC: 4 (Simulation time: 00 hr 13 min 23 sec)
Heartbeat CPU 0 instructions: 210000000 cycles: 52500987 heartbeat IPC: 4 cumulative IPC: 4 (Simulation time: 00 hr 14 min 03 sec)
Heartbeat CPU 0 instructions: 220000000 cycles: 55000987 heartbeat IPC: 4 cumulative IPC: 4 (Simulation time: 00 hr 14 min 40 sec)
Heartbeat CPU 0 instructions: 230000000 cycles: 57500987 heartbeat IPC: 4 cumulative IPC: 4 (Simulation time: 00 hr 15 min 19 sec)
Heartbeat CPU 0 instructions: 240000000 cycles: 60001146 heartbeat IPC: 4 cumulative IPC: 4 (Simulation time: 00 hr 15 min 59 sec)
Heartbeat CPU 0 instructions: 250000003 cycles: 62501328 heartbeat IPC: 4 cumulative IPC: 4 (Simulation time: 00 hr 16 min 38 sec)
Heartbeat CPU 0 instructions: 260000003 cycles: 65001328 heartbeat IPC: 4 cumulative IPC: 4 (Simulation time: 00 hr 17 min 03 sec)
Heartbeat CPU 0 instructions: 270000003 cycles: 67501328 heartbeat IPC: 4 cumulative IPC: 4 (Simulation time: 00 hr 17 min 25 sec)
Heartbeat CPU 0 instructions: 280000003 cycles: 70001328 heartbeat IPC: 4 cumulative IPC: 4 (Simulation time: 00 hr 18 min 03 sec)
Heartbeat CPU 0 instructions: 290000003 cycles: 72501469 heartbeat IPC: 4 cumulative IPC: 4 (Simulation time: 00 hr 18 min 42 sec)
Heartbeat CPU 0 instructions: 300000003 cycles: 75001469 heartbeat IPC: 4 cumulative IPC: 4 (Simulation time: 00 hr 19 min 21 sec)
Heartbeat CPU 0 instructions: 310000002 cycles: 77501665 heartbeat IPC: 4 cumulative IPC: 4 (Simulation time: 00 hr 20 min 00 sec)
Heartbeat CPU 0 instructions: 320000003 cycles: 80001912 heartbeat IPC: 4 cumulative IPC: 4 (Simulation time: 00 hr 20 min 39 sec)
Heartbeat CPU 0 instructions: 330000002 cycles: 82504543 heartbeat IPC: 3.996 cumulative IPC: 4 (Simulation time: 00 hr 21 min 18 sec)
Heartbeat CPU 0 instructions: 340000000 cycles: 85004662 heartbeat IPC: 4 cumulative IPC: 4 (Simulation time: 00 hr 21 min 57 sec)
Heartbeat CPU 0 instructions: 350000000 cycles: 87504662 heartbeat IPC: 4 cumulative IPC: 4 (Simulation time: 00 hr 22 min 36 sec)
Heartbeat CPU 0 instructions: 360000001 cycles: 90011966 heartbeat IPC: 3.988 cumulative IPC: 3.999 (Simulation time: 00 hr 23 min 15 sec)
Heartbeat CPU 0 instructions: 370000001 cycles: 92511966 heartbeat IPC: 4 cumulative IPC: 3.999 (Simulation time: 00 hr 23 min 54 sec)
Heartbeat CPU 0 instructions: 380000002 cycles: 95011979 heartbeat IPC: 4 cumulative IPC: 3.999 (Simulation time: 00 hr 24 min 33 sec)
Heartbeat CPU 0 instructions: 390000003 cycles: 97511993 heartbeat IPC: 4 cumulative IPC: 4 (Simulation time: 00 hr 25 min 11 sec)
Heartbeat CPU 0 instructions: 400000003 cycles: 100011993 heartbeat IPC: 4 cumulative IPC: 4 (Simulation time: 00 hr 25 min 50 sec)
Heartbeat CPU 0 instructions: 410000003 cycles: 102511993 heartbeat IPC: 4 cumulative IPC: 4 (Simulation time: 00 hr 26 min 29 sec)
Heartbeat CPU 0 instructions: 420000003 cycles: 105012043 heartbeat IPC: 4 cumulative IPC: 4 (Simulation time: 00 hr 27 min 07 sec)
Heartbeat CPU 0 instructions: 430000001 cycles: 107512082 heartbeat IPC: 4 cumulative IPC: 4 (Simulation time: 00 hr 27 min 45 sec)
Heartbeat CPU 0 instructions: 440000003 cycles: 110019422 heartbeat IPC: 3.988 cumulative IPC: 3.999 (Simulation time: 00 hr 28 min 24 sec)
Heartbeat CPU 0 instructions: 450000003 cycles: 112519422 heartbeat IPC: 4 cumulative IPC: 3.999 (Simulation time: 00 hr 29 min 03 sec)
Heartbeat CPU 0 instructions: 460000003 cycles: 115019422 heartbeat IPC: 4 cumulative IPC: 3.999 (Simulation time: 00 hr 29 min 42 sec)
Heartbeat CPU 0 instructions: 470000003 cycles: 117528575 heartbeat IPC: 3.985 cumulative IPC: 3.999 (Simulation time: 00 hr 30 min 21 sec)
Heartbeat CPU 0 instructions: 480000003 cycles: 120032430 heartbeat IPC: 3.994 cumulative IPC: 3.999 (Simulation time: 00 hr 31 min 01 sec)
Heartbeat CPU 0 instructions: 490000000 cycles: 122532692 heartbeat IPC: 4 cumulative IPC: 3.999 (Simulation time: 00 hr 31 min 40 sec)
Heartbeat CPU 0 instructions: 500000001 cycles: 125032840 heartbeat IPC: 4 cumulative IPC: 3.999 (Simulation time: 00 hr 32 min 20 sec)
Heartbeat CPU 0 instructions: 510000002 cycles: 127533299 heartbeat IPC: 3.999 cumulative IPC: 3.999 (Simulation time: 00 hr 32 min 44 sec)
Heartbeat CPU 0 instructions: 520000002 cycles: 130042561 heartbeat IPC: 3.985 cumulative IPC: 3.999 (Simulation time: 00 hr 33 min 07 sec)
Heartbeat CPU 0 instructions: 530000003 cycles: 132542930 heartbeat IPC: 3.999 cumulative IPC: 3.999 (Simulation time: 00 hr 33 min 31 sec)
Heartbeat CPU 0 instructions: 540000000 cycles: 135053646 heartbeat IPC: 3.983 cumulative IPC: 3.998 (Simulation time: 00 hr 33 min 53 sec)
Heartbeat CPU 0 instructions: 550000001 cycles: 137558649 heartbeat IPC: 3.992 cumulative IPC: 3.998 (Simulation time: 00 hr 34 min 16 sec)
Heartbeat CPU 0 instructions: 560000001 cycles: 140058649 heartbeat IPC: 4 cumulative IPC: 3.998 (Simulation time: 00 hr 34 min 37 sec)
Heartbeat CPU 0 instructions: 570000001 cycles: 142558649 heartbeat IPC: 4 cumulative IPC: 3.998 (Simulation time: 00 hr 34 min 58 sec)
Heartbeat CPU 0 instructions: 580000001 cycles: 145058649 heartbeat IPC: 4 cumulative IPC: 3.998 (Simulation time: 00 hr 35 min 19 sec)
Heartbeat CPU 0 instructions: 590000000 cycles: 147559446 heartbeat IPC: 3.999 cumulative IPC: 3.998 (Simulation time: 00 hr 35 min 41 sec)
Heartbeat CPU 0 instructions: 600000003 cycles: 150060176 heartbeat IPC: 3.999 cumulative IPC: 3.998 (Simulation time: 00 hr 36 min 03 sec)
Heartbeat CPU 0 instructions: 610000002 cycles: 152561273 heartbeat IPC: 3.998 cumulative IPC: 3.998 (Simulation time: 00 hr 36 min 26 sec)
Heartbeat CPU 0 instructions: 620000002 cycles: 155064943 heartbeat IPC: 3.994 cumulative IPC: 3.998 (Simulation time: 00 hr 36 min 50 sec)
Heartbeat CPU 0 instructions: 630000000 cycles: 157566352 heartbeat IPC: 3.998 cumulative IPC: 3.998 (Simulation time: 00 hr 37 min 12 sec)
Heartbeat CPU 0 instructions: 640000000 cycles: 160066488 heartbeat IPC: 4 cumulative IPC: 3.998 (Simulation time: 00 hr 37 min 34 sec)
Heartbeat CPU 0 instructions: 650000003 cycles: 162566867 heartbeat IPC: 3.999 cumulative IPC: 3.998 (Simulation time: 00 hr 37 min 57 sec)
Heartbeat CPU 0 instructions: 660000003 cycles: 165069372 heartbeat IPC: 3.996 cumulative IPC: 3.998 (Simulation time: 00 hr 38 min 19 sec)
Heartbeat CPU 0 instructions: 670000002 cycles: 167569487 heartbeat IPC: 4 cumulative IPC: 3.998 (Simulation time: 00 hr 38 min 41 sec)
Heartbeat CPU 0 instructions: 680000003 cycles: 170069673 heartbeat IPC: 4 cumulative IPC: 3.998 (Simulation time: 00 hr 39 min 03 sec)
Heartbeat CPU 0 instructions: 690000003 cycles: 172598176 heartbeat IPC: 3.955 cumulative IPC: 3.998 (Simulation time: 00 hr 39 min 24 sec)
Heartbeat CPU 0 instructions: 700000003 cycles: 175098176 heartbeat IPC: 4 cumulative IPC: 3.998 (Simulation time: 00 hr 39 min 44 sec)
Heartbeat CPU 0 instructions: 710000002 cycles: 177598380 heartbeat IPC: 4 cumulative IPC: 3.998 (Simulation time: 00 hr 40 min 02 sec)
Heartbeat CPU 0 instructions: 720000002 cycles: 180098553 heartbeat IPC: 4 cumulative IPC: 3.998 (Simulation time: 00 hr 40 min 21 sec)
Heartbeat CPU 0 instructions: 730000002 cycles: 182598553 heartbeat IPC: 4 cumulative IPC: 3.998 (Simulation time: 00 hr 40 min 39 sec)
Heartbeat CPU 0 instructions: 740000002 cycles: 185098553 heartbeat IPC: 4 cumulative IPC: 3.998 (Simulation time: 00 hr 40 min 58 sec)
Heartbeat CPU 0 instructions: 750000002 cycles: 187598995 heartbeat IPC: 3.999 cumulative IPC: 3.998 (Simulation time: 00 hr 41 min 16 sec)
Heartbeat CPU 0 instructions: 760000001 cycles: 190099398 heartbeat IPC: 3.999 cumulative IPC: 3.998 (Simulation time: 00 hr 41 min 33 sec)
Heartbeat CPU 0 instructions: 770000002 cycles: 192599524 heartbeat IPC: 4 cumulative IPC: 3.998 (Simulation time: 00 hr 41 min 50 sec)
Heartbeat CPU 0 instructions: 780000002 cycles: 195099524 heartbeat IPC: 4 cumulative IPC: 3.998 (Simulation time: 00 hr 42 min 08 sec)
Heartbeat CPU 0 instructions: 790000002 cycles: 197599898 heartbeat IPC: 3.999 cumulative IPC: 3.998 (Simulation time: 00 hr 42 min 25 sec)
Heartbeat CPU 0 instructions: 800000003 cycles: 200100202 heartbeat IPC: 4 cumulative IPC: 3.998 (Simulation time: 00 hr 42 min 42 sec)
Heartbeat CPU 0 instructions: 810000001 cycles: 202600953 heartbeat IPC: 3.999 cumulative IPC: 3.998 (Simulation time: 00 hr 42 min 59 sec)
Heartbeat CPU 0 instructions: 820000001 cycles: 205100953 heartbeat IPC: 4 cumulative IPC: 3.998 (Simulation time: 00 hr 43 min 16 sec)
Heartbeat CPU 0 instructions: 830000001 cycles: 207600953 heartbeat IPC: 4 cumulative IPC: 3.998 (Simulation time: 00 hr 43 min 34 sec)
Heartbeat CPU 0 instructions: 840000002 cycles: 210101132 heartbeat IPC: 4 cumulative IPC: 3.998 (Simulation time: 00 hr 43 min 51 sec)
Heartbeat CPU 0 instructions: 850000003 cycles: 212602610 heartbeat IPC: 3.998 cumulative IPC: 3.998 (Simulation time: 00 hr 44 min 08 sec)
Heartbeat CPU 0 instructions: 860000003 cycles: 215102610 heartbeat IPC: 4 cumulative IPC: 3.998 (Simulation time: 00 hr 44 min 26 sec)
Heartbeat CPU 0 instructions: 870000003 cycles: 217602610 heartbeat IPC: 4 cumulative IPC: 3.998 (Simulation time: 00 hr 44 min 43 sec)
Heartbeat CPU 0 instructions: 880000002 cycles: 220103463 heartbeat IPC: 3.999 cumulative IPC: 3.998 (Simulation time: 00 hr 45 min 00 sec)
Heartbeat CPU 0 instructions: 890000002 cycles: 222603463 heartbeat IPC: 4 cumulative IPC: 3.998 (Simulation time: 00 hr 45 min 18 sec)
Heartbeat CPU 0 instructions: 900000002 cycles: 225103712 heartbeat IPC: 4 cumulative IPC: 3.998 (Simulation time: 00 hr 45 min 35 sec)
Heartbeat CPU 0 instructions: 910000000 cycles: 227604106 heartbeat IPC: 3.999 cumulative IPC: 3.998 (Simulation time: 00 hr 45 min 52 sec)
Heartbeat CPU 0 instructions: 920000001 cycles: 230104500 heartbeat IPC: 3.999 cumulative IPC: 3.998 (Simulation time: 00 hr 46 min 09 sec)
Heartbeat CPU 0 instructions: 930000003 cycles: 232604754 heartbeat IPC: 4 cumulative IPC: 3.998 (Simulation time: 00 hr 46 min 27 sec)
Heartbeat CPU 0 instructions: 940000003 cycles: 235104754 heartbeat IPC: 4 cumulative IPC: 3.998 (Simulation time: 00 hr 46 min 45 sec)
Heartbeat CPU 0 instructions: 950000003 cycles: 237605101 heartbeat IPC: 3.999 cumulative IPC: 3.998 (Simulation time: 00 hr 47 min 02 sec)
Heartbeat CPU 0 instructions: 960000000 cycles: 240105869 heartbeat IPC: 3.999 cumulative IPC: 3.998 (Simulation time: 00 hr 47 min 19 sec)
Heartbeat CPU 0 instructions: 970000003 cycles: 242605920 heartbeat IPC: 4 cumulative IPC: 3.998 (Simulation time: 00 hr 47 min 37 sec)
Heartbeat CPU 0 instructions: 980000002 cycles: 245105924 heartbeat IPC: 4 cumulative IPC: 3.998 (Simulation time: 00 hr 47 min 54 sec)
Heartbeat CPU 0 instructions: 990000003 cycles: 247607445 heartbeat IPC: 3.998 cumulative IPC: 3.998 (Simulation time: 00 hr 48 min 12 sec)
Heartbeat CPU 0 instructions: 1000000003 cycles: 250107445 heartbeat IPC: 4 cumulative IPC: 3.998 (Simulation time: 00 hr 48 min 29 sec)
Warmup finished CPU 0 instructions: 1000000003 cycles: 250107446 cumulative IPC: 3.998 (Simulation time: 00 hr 48 min 29 sec)
Warmup complete CPU 0 instructions: 1000000003 cycles: 250107446 cumulative IPC: 3.998 (Simulation time: 00 hr 48 min 29 sec)
Heartbeat CPU 0 instructions: 1010000001 cycles: 253065472 heartbeat IPC: 3.381 cumulative IPC: 3.381 (Simulation time: 00 hr 48 min 50 sec)
Heartbeat CPU 0 instructions: 1020000003 cycles: 255956004 heartbeat IPC: 3.46 cumulative IPC: 3.42 (Simulation time: 00 hr 49 min 10 sec)
Heartbeat CPU 0 instructions: 1030000000 cycles: 258740766 heartbeat IPC: 3.591 cumulative IPC: 3.475 (Simulation time: 00 hr 49 min 31 sec)
Heartbeat CPU 0 instructions: 1040000000 cycles: 261578165 heartbeat IPC: 3.524 cumulative IPC: 3.487 (Simulation time: 00 hr 49 min 51 sec)
Heartbeat CPU 0 instructions: 1050000000 cycles: 264461898 heartbeat IPC: 3.468 cumulative IPC: 3.483 (Simulation time: 00 hr 50 min 12 sec)
Heartbeat CPU 0 instructions: 1060000001 cycles: 267429168 heartbeat IPC: 3.37 cumulative IPC: 3.464 (Simulation time: 00 hr 50 min 33 sec)
Heartbeat CPU 0 instructions: 1070000000 cycles: 270475679 heartbeat IPC: 3.282 cumulative IPC: 3.437 (Simulation time: 00 hr 50 min 54 sec)
Heartbeat CPU 0 instructions: 1080000003 cycles: 273397715 heartbeat IPC: 3.422 cumulative IPC: 3.435 (Simulation time: 00 hr 51 min 15 sec)
Heartbeat CPU 0 instructions: 1090000000 cycles: 276310379 heartbeat IPC: 3.433 cumulative IPC: 3.435 (Simulation time: 00 hr 51 min 36 sec)
Heartbeat CPU 0 instructions: 1100000000 cycles: 279067226 heartbeat IPC: 3.627 cumulative IPC: 3.453 (Simulation time: 00 hr 51 min 56 sec)
Heartbeat CPU 0 instructions: 1110000004 cycles: 282012948 heartbeat IPC: 3.395 cumulative IPC: 3.448 (Simulation time: 00 hr 52 min 17 sec)
Heartbeat CPU 0 instructions: 1120000000 cycles: 284895144 heartbeat IPC: 3.47 cumulative IPC: 3.449 (Simulation time: 00 hr 52 min 37 sec)
Heartbeat CPU 0 instructions: 1130000002 cycles: 287530819 heartbeat IPC: 3.794 cumulative IPC: 3.474 (Simulation time: 00 hr 52 min 57 sec)
Heartbeat CPU 0 instructions: 1140000001 cycles: 290580404 heartbeat IPC: 3.279 cumulative IPC: 3.459 (Simulation time: 00 hr 53 min 18 sec)
Heartbeat CPU 0 instructions: 1150000001 cycles: 293514778 heartbeat IPC: 3.408 cumulative IPC: 3.456 (Simulation time: 00 hr 53 min 39 sec)
Heartbeat CPU 0 instructions: 1160000000 cycles: 296412862 heartbeat IPC: 3.451 cumulative IPC: 3.455 (Simulation time: 00 hr 53 min 59 sec)
Heartbeat CPU 0 instructions: 1170000003 cycles: 299199523 heartbeat IPC: 3.589 cumulative IPC: 3.463 (Simulation time: 00 hr 54 min 19 sec)
Heartbeat CPU 0 instructions: 1180000004 cycles: 302015550 heartbeat IPC: 3.551 cumulative IPC: 3.468 (Simulation time: 00 hr 54 min 40 sec)
Heartbeat CPU 0 instructions: 1190000004 cycles: 304967250 heartbeat IPC: 3.388 cumulative IPC: 3.463 (Simulation time: 00 hr 55 min 00 sec)
Heartbeat CPU 0 instructions: 1200000000 cycles: 307715785 heartbeat IPC: 3.638 cumulative IPC: 3.472 (Simulation time: 00 hr 55 min 21 sec)
Heartbeat CPU 0 instructions: 1210000003 cycles: 310622379 heartbeat IPC: 3.44 cumulative IPC: 3.47 (Simulation time: 00 hr 55 min 41 sec)
Heartbeat CPU 0 instructions: 1220000001 cycles: 314598356 heartbeat IPC: 2.515 cumulative IPC: 3.411 (Simulation time: 00 hr 56 min 05 sec)
Heartbeat CPU 0 instructions: 1230000001 cycles: 318971157 heartbeat IPC: 2.287 cumulative IPC: 3.34 (Simulation time: 00 hr 56 min 30 sec)
Heartbeat CPU 0 instructions: 1240000000 cycles: 324341359 heartbeat IPC: 1.862 cumulative IPC: 3.233 (Simulation time: 00 hr 56 min 59 sec)
Heartbeat CPU 0 instructions: 1250000002 cycles: 330020769 heartbeat IPC: 1.761 cumulative IPC: 3.128 (Simulation time: 00 hr 57 min 28 sec)
Heartbeat CPU 0 instructions: 1260000002 cycles: 333162588 heartbeat IPC: 3.183 cumulative IPC: 3.13 (Simulation time: 00 hr 57 min 49 sec)
Heartbeat CPU 0 instructions: 1270000003 cycles: 336098835 heartbeat IPC: 3.406 cumulative IPC: 3.14 (Simulation time: 00 hr 58 min 08 sec)
Heartbeat CPU 0 instructions: 1280000000 cycles: 339205172 heartbeat IPC: 3.219 cumulative IPC: 3.143 (Simulation time: 00 hr 58 min 29 sec)
Heartbeat CPU 0 instructions: 1290000002 cycles: 342302660 heartbeat IPC: 3.228 cumulative IPC: 3.145 (Simulation time: 00 hr 58 min 49 sec)
Heartbeat CPU 0 instructions: 1300000001 cycles: 345390900 heartbeat IPC: 3.238 cumulative IPC: 3.149 (Simulation time: 00 hr 59 min 09 sec)
Heartbeat CPU 0 instructions: 1310000000 cycles: 348541115 heartbeat IPC: 3.174 cumulative IPC: 3.149 (Simulation time: 00 hr 59 min 29 sec)
Heartbeat CPU 0 instructions: 1320000003 cycles: 354436290 heartbeat IPC: 1.696 cumulative IPC: 3.067 (Simulation time: 00 hr 59 min 58 sec)
Heartbeat CPU 0 instructions: 1330000002 cycles: 360423162 heartbeat IPC: 1.67 cumulative IPC: 2.991 (Simulation time: 01 hr 00 min 26 sec)
Heartbeat CPU 0 instructions: 1340000002 cycles: 365706991 heartbeat IPC: 1.893 cumulative IPC: 2.941 (Simulation time: 01 hr 00 min 53 sec)
Heartbeat CPU 0 instructions: 1350000001 cycles: 368945146 heartbeat IPC: 3.088 cumulative IPC: 2.945 (Simulation time: 01 hr 01 min 13 sec)
Heartbeat CPU 0 instructions: 1360000001 cycles: 372221791 heartbeat IPC: 3.052 cumulative IPC: 2.948 (Simulation time: 01 hr 01 min 34 sec)
Heartbeat CPU 0 instructions: 1370000002 cycles: 375494542 heartbeat IPC: 3.056 cumulative IPC: 2.951 (Simulation time: 01 hr 01 min 55 sec)
Heartbeat CPU 0 instructions: 1380000000 cycles: 381426734 heartbeat IPC: 1.686 cumulative IPC: 2.894 (Simulation time: 01 hr 02 min 23 sec)
Heartbeat CPU 0 instructions: 1390000003 cycles: 387541283 heartbeat IPC: 1.635 cumulative IPC: 2.838 (Simulation time: 01 hr 02 min 52 sec)
Heartbeat CPU 0 instructions: 1400000001 cycles: 392276399 heartbeat IPC: 2.112 cumulative IPC: 2.814 (Simulation time: 01 hr 03 min 17 sec)
Heartbeat CPU 0 instructions: 1410000003 cycles: 395343895 heartbeat IPC: 3.26 cumulative IPC: 2.823 (Simulation time: 01 hr 03 min 37 sec)
Heartbeat CPU 0 instructions: 1420000002 cycles: 398365207 heartbeat IPC: 3.31 cumulative IPC: 2.833 (Simulation time: 01 hr 03 min 56 sec)
Heartbeat CPU 0 instructions: 1430000000 cycles: 401294661 heartbeat IPC: 3.414 cumulative IPC: 2.844 (Simulation time: 01 hr 04 min 16 sec)
Heartbeat CPU 0 instructions: 1440000002 cycles: 404195253 heartbeat IPC: 3.448 cumulative IPC: 2.856 (Simulation time: 01 hr 04 min 35 sec)
Heartbeat CPU 0 instructions: 1450000000 cycles: 407105497 heartbeat IPC: 3.436 cumulative IPC: 2.866 (Simulation time: 01 hr 04 min 55 sec)
Heartbeat CPU 0 instructions: 1460000000 cycles: 410022434 heartbeat IPC: 3.428 cumulative IPC: 2.877 (Simulation time: 01 hr 05 min 15 sec)
Heartbeat CPU 0 instructions: 1470000004 cycles: 412991746 heartbeat IPC: 3.368 cumulative IPC: 2.885 (Simulation time: 01 hr 05 min 34 sec)
Heartbeat CPU 0 instructions: 1480000002 cycles: 415948307 heartbeat IPC: 3.382 cumulative IPC: 2.894 (Simulation time: 01 hr 05 min 54 sec)
Heartbeat CPU 0 instructions: 1490000002 cycles: 418855718 heartbeat IPC: 3.439 cumulative IPC: 2.904 (Simulation time: 01 hr 06 min 14 sec)
Heartbeat CPU 0 instructions: 1500000003 cycles: 421890213 heartbeat IPC: 3.295 cumulative IPC: 2.911 (Simulation time: 01 hr 06 min 34 sec)
Simulation finished CPU 0 instructions: 500000000 cycles: 171782768 cumulative IPC: 2.911 (Simulation time: 01 hr 06 min 34 sec)
Simulation complete CPU 0 instructions: 500000000 cycles: 171782768 cumulative IPC: 2.911 (Simulation time: 01 hr 06 min 34 sec)

ChampSim completed all CPUs

=== Simulation ===
CPU 0 runs traces/600.perlbench_s-210B.champsimtrace.xz
Region of Interest Statistics

CPU 0 cumulative IPC: 2.911 instructions: 500000000 cycles: 171782768
CPU 0 Branch Prediction Accuracy: 98.12% MPKI: 2.823 Average ROB Occupancy at Mispredict: 85.28
Branch type MPKI
BRANCH_DIRECT_JUMP: 0.0578
BRANCH_INDIRECT: 0.296
BRANCH_CONDITIONAL: 2.29
BRANCH_DIRECT_CALL: 0.0136
BRANCH_INDIRECT_CALL: 0.154
BRANCH_RETURN: 0.0117

LLC TOTAL        ACCESS:     353359 HIT:     105601 MISS:     247758
LLC LOAD         ACCESS:     283557 HIT:      61552 MISS:     222005
LLC RFO          ACCESS:      16401 HIT:       4913 MISS:      11488
LLC PREFETCH     ACCESS:          0 HIT:          0 MISS:          0
LLC WRITE        ACCESS:      35972 HIT:      35780 MISS:        192
LLC TRANSLATION  ACCESS:      17429 HIT:       3356 MISS:      14073
LLC PREFETCH REQUESTED:          0 ISSUED:          0 USEFUL:          0 USELESS:          0
LLC AVERAGE MISS LATENCY: 209.1 cycles
cpu0_DTLB TOTAL        ACCESS:  115739947 HIT:  114913440 MISS:     826507
cpu0_DTLB LOAD         ACCESS:  115739947 HIT:  114913440 MISS:     826507
cpu0_DTLB RFO          ACCESS:          0 HIT:          0 MISS:          0
cpu0_DTLB PREFETCH     ACCESS:          0 HIT:          0 MISS:          0
cpu0_DTLB WRITE        ACCESS:          0 HIT:          0 MISS:          0
cpu0_DTLB TRANSLATION  ACCESS:          0 HIT:          0 MISS:          0
cpu0_DTLB PREFETCH REQUESTED:          0 ISSUED:          0 USEFUL:          0 USELESS:          0
cpu0_DTLB AVERAGE MISS LATENCY: 8.976 cycles
cpu0_ITLB TOTAL        ACCESS:    6555013 HIT:    6364558 MISS:     190455
cpu0_ITLB LOAD         ACCESS:    6555013 HIT:    6364558 MISS:     190455
cpu0_ITLB RFO          ACCESS:          0 HIT:          0 MISS:          0
cpu0_ITLB PREFETCH     ACCESS:          0 HIT:          0 MISS:          0
cpu0_ITLB WRITE        ACCESS:          0 HIT:          0 MISS:          0
cpu0_ITLB TRANSLATION  ACCESS:          0 HIT:          0 MISS:          0
cpu0_ITLB PREFETCH REQUESTED:          0 ISSUED:          0 USEFUL:          0 USELESS:          0
cpu0_ITLB AVERAGE MISS LATENCY: 1.954 cycles
cpu0_L1D TOTAL        ACCESS:  165760043 HIT:  164597739 MISS:    1162304
cpu0_L1D LOAD         ACCESS:   63090440 HIT:   62115669 MISS:     974771
cpu0_L1D RFO          ACCESS:          0 HIT:          0 MISS:          0
cpu0_L1D PREFETCH     ACCESS:          0 HIT:          0 MISS:          0
cpu0_L1D WRITE        ACCESS:  102642796 HIT:  102479818 MISS:     162978
cpu0_L1D TRANSLATION  ACCESS:      26807 HIT:       2252 MISS:      24555
cpu0_L1D PREFETCH REQUESTED:          0 ISSUED:          0 USEFUL:          0 USELESS:          0
cpu0_L1D AVERAGE MISS LATENCY: 48.53 cycles
cpu0_L1I TOTAL        ACCESS:    7333354 HIT:    6167509 MISS:    1165845
cpu0_L1I LOAD         ACCESS:    7333354 HIT:    6167509 MISS:    1165845
cpu0_L1I RFO          ACCESS:          0 HIT:          0 MISS:          0
cpu0_L1I PREFETCH     ACCESS:          0 HIT:          0 MISS:          0
cpu0_L1I WRITE        ACCESS:          0 HIT:          0 MISS:          0
cpu0_L1I TRANSLATION  ACCESS:          0 HIT:          0 MISS:          0
cpu0_L1I PREFETCH REQUESTED:          0 ISSUED:          0 USEFUL:          0 USELESS:          0
cpu0_L1I AVERAGE MISS LATENCY: 9.196 cycles
cpu0_L2C TOTAL        ACCESS:    1565239 HIT:    1247503 MISS:     317736
cpu0_L2C LOAD         ACCESS:    1387025 HIT:    1103468 MISS:     283557
cpu0_L2C RFO          ACCESS:      48899 HIT:      32498 MISS:      16401
cpu0_L2C PREFETCH     ACCESS:          0 HIT:          0 MISS:          0
cpu0_L2C WRITE        ACCESS:     104835 HIT:     104486 MISS:        349
cpu0_L2C TRANSLATION  ACCESS:      24480 HIT:       7051 MISS:      17429
cpu0_L2C PREFETCH REQUESTED:          0 ISSUED:          0 USEFUL:          0 USELESS:          0
cpu0_L2C AVERAGE MISS LATENCY: 183.8 cycles
cpu0_STLB TOTAL        ACCESS:     626557 HIT:     603070 MISS:      23487
cpu0_STLB LOAD         ACCESS:     626557 HIT:     603070 MISS:      23487
cpu0_STLB RFO          ACCESS:          0 HIT:          0 MISS:          0
cpu0_STLB PREFETCH     ACCESS:          0 HIT:          0 MISS:          0
cpu0_STLB WRITE        ACCESS:          0 HIT:          0 MISS:          0
cpu0_STLB TRANSLATION  ACCESS:          0 HIT:          0 MISS:          0
cpu0_STLB PREFETCH REQUESTED:          0 ISSUED:          0 USEFUL:          0 USELESS:          0
cpu0_STLB AVERAGE MISS LATENCY: 172.8 cycles

DRAM Statistics

Channel 0 RQ ROW_BUFFER_HIT:      57659
  ROW_BUFFER_MISS:     189905
 AVG DBUS CONGESTED CYCLE: 3.821
WQ ROW_BUFFER_HIT: Channel 0 
  ROW_BUFFER_MISS:      10634
  FULL:      14863
