WARNING: physical memory size is smaller than virtual memory size.

*** ChampSim Multicore Out-of-Order Simulator ***
Warmup Instructions: 1000000000
Simulation Instructions: 500000000
Number of CPUs: 1
Page size: 4096

Off-chip DRAM Size: 4 GiB Channels: 1 Width: 64-bit Data Race: 3200 MT/s
Heartbeat CPU 0 instructions: 10000000 cycles: 2500066 heartbeat IPC: 4 cumulative IPC: 4 (Simulation time: 00 hr 00 min 17 sec)
Heartbeat CPU 0 instructions: 20000000 cycles: 5000066 heartbeat IPC: 4 cumulative IPC: 4 (Simulation time: 00 hr 00 min 34 sec)
Heartbeat CPU 0 instructions: 30000000 cycles: 7500066 heartbeat IPC: 4 cumulative IPC: 4 (Simulation time: 00 hr 00 min 51 sec)
Heartbeat CPU 0 instructions: 40000000 cycles: 10000066 heartbeat IPC: 4 cumulative IPC: 4 (Simulation time: 00 hr 01 min 09 sec)
Heartbeat CPU 0 instructions: 50000002 cycles: 12500112 heartbeat IPC: 4 cumulative IPC: 4 (Simulation time: 00 hr 01 min 30 sec)
Heartbeat CPU 0 instructions: 60000000 cycles: 15000218 heartbeat IPC: 4 cumulative IPC: 4 (Simulation time: 00 hr 01 min 48 sec)
Heartbeat CPU 0 instructions: 70000000 cycles: 17500218 heartbeat IPC: 4 cumulative IPC: 4 (Simulation time: 00 hr 02 min 06 sec)
Heartbeat CPU 0 instructions: 80000000 cycles: 20000218 heartbeat IPC: 4 cumulative IPC: 4 (Simulation time: 00 hr 02 min 27 sec)
Heartbeat CPU 0 instructions: 90000000 cycles: 22500218 heartbeat IPC: 4 cumulative IPC: 4 (Simulation time: 00 hr 02 min 45 sec)
Heartbeat CPU 0 instructions: 100000001 cycles: 25000534 heartbeat IPC: 3.999 cumulative IPC: 4 (Simulation time: 00 hr 03 min 05 sec)
Heartbeat CPU 0 instructions: 110000001 cycles: 27500534 heartbeat IPC: 4 cumulative IPC: 4 (Simulation time: 00 hr 03 min 23 sec)
Heartbeat CPU 0 instructions: 120000001 cycles: 30000534 heartbeat IPC: 4 cumulative IPC: 4 (Simulation time: 00 hr 03 min 41 sec)
Heartbeat CPU 0 instructions: 130000003 cycles: 32500582 heartbeat IPC: 4 cumulative IPC: 4 (Simulation time: 00 hr 03 min 59 sec)
Heartbeat CPU 0 instructions: 140000001 cycles: 35000628 heartbeat IPC: 4 cumulative IPC: 4 (Simulation time: 00 hr 04 min 16 sec)
Heartbeat CPU 0 instructions: 150000001 cycles: 37500628 heartbeat IPC: 4 cumulative IPC: 4 (Simulation time: 00 hr 04 min 34 sec)
Heartbeat CPU 0 instructions: 160000001 cycles: 40000628 heartbeat IPC: 4 cumulative IPC: 4 (Simulation time: 00 hr 04 min 52 sec)
Heartbeat CPU 0 instructions: 170000000 cycles: 42500954 heartbeat IPC: 3.999 cumulative IPC: 4 (Simulation time: 00 hr 05 min 11 sec)
Heartbeat CPU 0 instructions: 180000000 cycles: 45000954 heartbeat IPC: 4 cumulative IPC: 4 (Simulation time: 00 hr 05 min 29 sec)
Heartbeat CPU 0 instructions: 190000000 cycles: 47500954 heartbeat IPC: 4 cumulative IPC: 4 (Simulation time: 00 hr 05 min 48 sec)
Heartbeat CPU 0 instructions: 200000000 cycles: 50000984 heartbeat IPC: 4 cumulative IPC: 4 (Simulation time: 00 hr 06 min 06 sec)
Heartbeat CPU 0 instructions: 210000000 cycles: 52500984 heartbeat IPC: 4 cumulative IPC: 4 (Simulation time: 00 hr 06 min 24 sec)
Heartbeat CPU 0 instructions: 220000000 cycles: 55000984 heartbeat IPC: 4 cumulative IPC: 4 (Simulation time: 00 hr 06 min 43 sec)
Heartbeat CPU 0 instructions: 230000000 cycles: 57500984 heartbeat IPC: 4 cumulative IPC: 4 (Simulation time: 00 hr 07 min 01 sec)
Heartbeat CPU 0 instructions: 240000000 cycles: 60001141 heartbeat IPC: 4 cumulative IPC: 4 (Simulation time: 00 hr 07 min 18 sec)
Heartbeat CPU 0 instructions: 250000003 cycles: 62501320 heartbeat IPC: 4 cumulative IPC: 4 (Simulation time: 00 hr 07 min 36 sec)
Heartbeat CPU 0 instructions: 260000003 cycles: 65001320 heartbeat IPC: 4 cumulative IPC: 4 (Simulation time: 00 hr 07 min 53 sec)
Heartbeat CPU 0 instructions: 270000003 cycles: 67501320 heartbeat IPC: 4 cumulative IPC: 4 (Simulation time: 00 hr 08 min 11 sec)
Heartbeat CPU 0 instructions: 280000003 cycles: 70001320 heartbeat IPC: 4 cumulative IPC: 4 (Simulation time: 00 hr 08 min 29 sec)
Heartbeat CPU 0 instructions: 290000003 cycles: 72501465 heartbeat IPC: 4 cumulative IPC: 4 (Simulation time: 00 hr 08 min 47 sec)
Heartbeat CPU 0 instructions: 300000003 cycles: 75001465 heartbeat IPC: 4 cumulative IPC: 4 (Simulation time: 00 hr 09 min 05 sec)
Heartbeat CPU 0 instructions: 310000002 cycles: 77501658 heartbeat IPC: 4 cumulative IPC: 4 (Simulation time: 00 hr 09 min 23 sec)
Heartbeat CPU 0 instructions: 320000003 cycles: 80001904 heartbeat IPC: 4 cumulative IPC: 4 (Simulation time: 00 hr 09 min 41 sec)
Heartbeat CPU 0 instructions: 330000002 cycles: 82504535 heartbeat IPC: 3.996 cumulative IPC: 4 (Simulation time: 00 hr 09 min 59 sec)
Heartbeat CPU 0 instructions: 340000000 cycles: 85004654 heartbeat IPC: 4 cumulative IPC: 4 (Simulation time: 00 hr 10 min 17 sec)
Heartbeat CPU 0 instructions: 350000000 cycles: 87504654 heartbeat IPC: 4 cumulative IPC: 4 (Simulation time: 00 hr 10 min 35 sec)
Heartbeat CPU 0 instructions: 360000001 cycles: 90011958 heartbeat IPC: 3.988 cumulative IPC: 3.999 (Simulation time: 00 hr 10 min 53 sec)
Heartbeat CPU 0 instructions: 370000001 cycles: 92511958 heartbeat IPC: 4 cumulative IPC: 3.999 (Simulation time: 00 hr 11 min 11 sec)
Heartbeat CPU 0 instructions: 380000002 cycles: 95011970 heartbeat IPC: 4 cumulative IPC: 3.999 (Simulation time: 00 hr 11 min 29 sec)
Heartbeat CPU 0 instructions: 390000003 cycles: 97511981 heartbeat IPC: 4 cumulative IPC: 4 (Simulation time: 00 hr 11 min 46 sec)
Heartbeat CPU 0 instructions: 400000003 cycles: 100011981 heartbeat IPC: 4 cumulative IPC: 4 (Simulation time: 00 hr 12 min 04 sec)
Heartbeat CPU 0 instructions: 410000003 cycles: 102511981 heartbeat IPC: 4 cumulative IPC: 4 (Simulation time: 00 hr 12 min 22 sec)
Heartbeat CPU 0 instructions: 420000003 cycles: 105012033 heartbeat IPC: 4 cumulative IPC: 4 (Simulation time: 00 hr 12 min 39 sec)
Heartbeat CPU 0 instructions: 430000001 cycles: 107512072 heartbeat IPC: 4 cumulative IPC: 4 (Simulation time: 00 hr 12 min 57 sec)
Heartbeat CPU 0 instructions: 440000003 cycles: 110019421 heartbeat IPC: 3.988 cumulative IPC: 3.999 (Simulation time: 00 hr 13 min 15 sec)
Heartbeat CPU 0 instructions: 450000003 cycles: 112519421 heartbeat IPC: 4 cumulative IPC: 3.999 (Simulation time: 00 hr 13 min 33 sec)
Heartbeat CPU 0 instructions: 460000003 cycles: 115019421 heartbeat IPC: 4 cumulative IPC: 3.999 (Simulation time: 00 hr 13 min 51 sec)
Heartbeat CPU 0 instructions: 470000003 cycles: 117528622 heartbeat IPC: 3.985 cumulative IPC: 3.999 (Simulation time: 00 hr 14 min 09 sec)
Heartbeat CPU 0 instructions: 480000003 cycles: 120032484 heartbeat IPC: 3.994 cumulative IPC: 3.999 (Simulation time: 00 hr 14 min 28 sec)
Heartbeat CPU 0 instructions: 490000000 cycles: 122532743 heartbeat IPC: 4 cumulative IPC: 3.999 (Simulation time: 00 hr 14 min 46 sec)
Heartbeat CPU 0 instructions: 500000001 cycles: 125032891 heartbeat IPC: 4 cumulative IPC: 3.999 (Simulation time: 00 hr 15 min 04 sec)
Heartbeat CPU 0 instructions: 510000002 cycles: 127533339 heartbeat IPC: 3.999 cumulative IPC: 3.999 (Simulation time: 00 hr 15 min 23 sec)
Heartbeat CPU 0 instructions: 520000002 cycles: 130042588 heartbeat IPC: 3.985 cumulative IPC: 3.999 (Simulation time: 00 hr 15 min 42 sec)
Heartbeat CPU 0 instructions: 530000003 cycles: 132542957 heartbeat IPC: 3.999 cumulative IPC: 3.999 (Simulation time: 00 hr 16 min 02 sec)
Heartbeat CPU 0 instructions: 540000000 cycles: 135053633 heartbeat IPC: 3.983 cumulative IPC: 3.998 (Simulation time: 00 hr 16 min 21 sec)
Heartbeat CPU 0 instructions: 550000002 cycles: 137558533 heartbeat IPC: 3.992 cumulative IPC: 3.998 (Simulation time: 00 hr 16 min 39 sec)
Heartbeat CPU 0 instructions: 560000002 cycles: 140058533 heartbeat IPC: 4 cumulative IPC: 3.998 (Simulation time: 00 hr 16 min 57 sec)
Heartbeat CPU 0 instructions: 570000002 cycles: 142558533 heartbeat IPC: 4 cumulative IPC: 3.998 (Simulation time: 00 hr 17 min 15 sec)
Heartbeat CPU 0 instructions: 580000002 cycles: 145058533 heartbeat IPC: 4 cumulative IPC: 3.998 (Simulation time: 00 hr 17 min 34 sec)
Heartbeat CPU 0 instructions: 590000000 cycles: 147559324 heartbeat IPC: 3.999 cumulative IPC: 3.998 (Simulation time: 00 hr 17 min 52 sec)
Heartbeat CPU 0 instructions: 600000003 cycles: 150060038 heartbeat IPC: 3.999 cumulative IPC: 3.998 (Simulation time: 00 hr 18 min 11 sec)
Heartbeat CPU 0 instructions: 610000002 cycles: 152561104 heartbeat IPC: 3.998 cumulative IPC: 3.998 (Simulation time: 00 hr 18 min 30 sec)
Heartbeat CPU 0 instructions: 620000001 cycles: 155064706 heartbeat IPC: 3.994 cumulative IPC: 3.998 (Simulation time: 00 hr 18 min 49 sec)
Heartbeat CPU 0 instructions: 630000003 cycles: 157566123 heartbeat IPC: 3.998 cumulative IPC: 3.998 (Simulation time: 00 hr 19 min 08 sec)
Heartbeat CPU 0 instructions: 640000002 cycles: 160066250 heartbeat IPC: 4 cumulative IPC: 3.998 (Simulation time: 00 hr 19 min 26 sec)
Heartbeat CPU 0 instructions: 650000003 cycles: 162566613 heartbeat IPC: 3.999 cumulative IPC: 3.998 (Simulation time: 00 hr 19 min 46 sec)
Heartbeat CPU 0 instructions: 660000003 cycles: 165069054 heartbeat IPC: 3.996 cumulative IPC: 3.998 (Simulation time: 00 hr 20 min 05 sec)
Heartbeat CPU 0 instructions: 670000002 cycles: 167569165 heartbeat IPC: 4 cumulative IPC: 3.998 (Simulation time: 00 hr 20 min 23 sec)
Heartbeat CPU 0 instructions: 680000003 cycles: 170069334 heartbeat IPC: 4 cumulative IPC: 3.998 (Simulation time: 00 hr 20 min 43 sec)
Heartbeat CPU 0 instructions: 690000000 cycles: 172597750 heartbeat IPC: 3.955 cumulative IPC: 3.998 (Simulation time: 00 hr 21 min 02 sec)
Heartbeat CPU 0 instructions: 700000000 cycles: 175097750 heartbeat IPC: 4 cumulative IPC: 3.998 (Simulation time: 00 hr 21 min 19 sec)
Heartbeat CPU 0 instructions: 710000002 cycles: 177597954 heartbeat IPC: 4 cumulative IPC: 3.998 (Simulation time: 00 hr 21 min 37 sec)
Heartbeat CPU 0 instructions: 720000002 cycles: 180098130 heartbeat IPC: 4 cumulative IPC: 3.998 (Simulation time: 00 hr 21 min 55 sec)
Heartbeat CPU 0 instructions: 730000002 cycles: 182598130 heartbeat IPC: 4 cumulative IPC: 3.998 (Simulation time: 00 hr 22 min 13 sec)
Heartbeat CPU 0 instructions: 740000002 cycles: 185098130 heartbeat IPC: 4 cumulative IPC: 3.998 (Simulation time: 00 hr 22 min 31 sec)
Heartbeat CPU 0 instructions: 750000002 cycles: 187598573 heartbeat IPC: 3.999 cumulative IPC: 3.998 (Simulation time: 00 hr 22 min 49 sec)
Heartbeat CPU 0 instructions: 760000001 cycles: 190098968 heartbeat IPC: 3.999 cumulative IPC: 3.998 (Simulation time: 00 hr 23 min 07 sec)
Heartbeat CPU 0 instructions: 770000002 cycles: 192599095 heartbeat IPC: 4 cumulative IPC: 3.998 (Simulation time: 00 hr 23 min 25 sec)
Heartbeat CPU 0 instructions: 780000002 cycles: 195099095 heartbeat IPC: 4 cumulative IPC: 3.998 (Simulation time: 00 hr 23 min 42 sec)
Heartbeat CPU 0 instructions: 790000002 cycles: 197599464 heartbeat IPC: 3.999 cumulative IPC: 3.998 (Simulation time: 00 hr 24 min 00 sec)
Heartbeat CPU 0 instructions: 800000003 cycles: 200099769 heartbeat IPC: 4 cumulative IPC: 3.998 (Simulation time: 00 hr 24 min 18 sec)
Heartbeat CPU 0 instructions: 810000001 cycles: 202600520 heartbeat IPC: 3.999 cumulative IPC: 3.998 (Simulation time: 00 hr 24 min 36 sec)
Heartbeat CPU 0 instructions: 820000001 cycles: 205100520 heartbeat IPC: 4 cumulative IPC: 3.998 (Simulation time: 00 hr 24 min 54 sec)
Heartbeat CPU 0 instructions: 830000001 cycles: 207600520 heartbeat IPC: 4 cumulative IPC: 3.998 (Simulation time: 00 hr 25 min 12 sec)
Heartbeat CPU 0 instructions: 840000002 cycles: 210100699 heartbeat IPC: 4 cumulative IPC: 3.998 (Simulation time: 00 hr 25 min 30 sec)
Heartbeat CPU 0 instructions: 850000003 cycles: 212602177 heartbeat IPC: 3.998 cumulative IPC: 3.998 (Simulation time: 00 hr 25 min 49 sec)
Heartbeat CPU 0 instructions: 860000003 cycles: 215102177 heartbeat IPC: 4 cumulative IPC: 3.998 (Simulation time: 00 hr 26 min 07 sec)
Heartbeat CPU 0 instructions: 870000003 cycles: 217602177 heartbeat IPC: 4 cumulative IPC: 3.998 (Simulation time: 00 hr 26 min 25 sec)
Heartbeat CPU 0 instructions: 880000002 cycles: 220103027 heartbeat IPC: 3.999 cumulative IPC: 3.998 (Simulation time: 00 hr 26 min 43 sec)
Heartbeat CPU 0 instructions: 890000002 cycles: 222603027 heartbeat IPC: 4 cumulative IPC: 3.998 (Simulation time: 00 hr 27 min 01 sec)
Heartbeat CPU 0 instructions: 900000002 cycles: 225103276 heartbeat IPC: 4 cumulative IPC: 3.998 (Simulation time: 00 hr 27 min 19 sec)
Heartbeat CPU 0 instructions: 910000000 cycles: 227603672 heartbeat IPC: 3.999 cumulative IPC: 3.998 (Simulation time: 00 hr 27 min 37 sec)
Heartbeat CPU 0 instructions: 920000001 cycles: 230104066 heartbeat IPC: 3.999 cumulative IPC: 3.998 (Simulation time: 00 hr 27 min 55 sec)
Heartbeat CPU 0 instructions: 930000003 cycles: 232604321 heartbeat IPC: 4 cumulative IPC: 3.998 (Simulation time: 00 hr 28 min 13 sec)
Heartbeat CPU 0 instructions: 940000003 cycles: 235104321 heartbeat IPC: 4 cumulative IPC: 3.998 (Simulation time: 00 hr 28 min 31 sec)
Heartbeat CPU 0 instructions: 950000003 cycles: 237604668 heartbeat IPC: 3.999 cumulative IPC: 3.998 (Simulation time: 00 hr 28 min 49 sec)
Heartbeat CPU 0 instructions: 960000000 cycles: 240105437 heartbeat IPC: 3.999 cumulative IPC: 3.998 (Simulation time: 00 hr 29 min 07 sec)
Heartbeat CPU 0 instructions: 970000003 cycles: 242605489 heartbeat IPC: 4 cumulative IPC: 3.998 (Simulation time: 00 hr 29 min 25 sec)
Heartbeat CPU 0 instructions: 980000002 cycles: 245105493 heartbeat IPC: 4 cumulative IPC: 3.998 (Simulation time: 00 hr 29 min 43 sec)
Heartbeat CPU 0 instructions: 990000003 cycles: 247607010 heartbeat IPC: 3.998 cumulative IPC: 3.998 (Simulation time: 00 hr 30 min 01 sec)
Heartbeat CPU 0 instructions: 1000000003 cycles: 250107010 heartbeat IPC: 4 cumulative IPC: 3.998 (Simulation time: 00 hr 30 min 20 sec)
Warmup finished CPU 0 instructions: 1000000003 cycles: 250107011 cumulative IPC: 3.998 (Simulation time: 00 hr 30 min 20 sec)
Warmup complete CPU 0 instructions: 1000000003 cycles: 250107011 cumulative IPC: 3.998 (Simulation time: 00 hr 30 min 20 sec)
Heartbeat CPU 0 instructions: 1010000002 cycles: 253037287 heartbeat IPC: 3.413 cumulative IPC: 3.413 (Simulation time: 00 hr 30 min 41 sec)
Heartbeat CPU 0 instructions: 1020000003 cycles: 255901827 heartbeat IPC: 3.491 cumulative IPC: 3.451 (Simulation time: 00 hr 31 min 02 sec)
Heartbeat CPU 0 instructions: 1030000000 cycles: 258711701 heartbeat IPC: 3.559 cumulative IPC: 3.486 (Simulation time: 00 hr 31 min 23 sec)
Heartbeat CPU 0 instructions: 1040000000 cycles: 261542958 heartbeat IPC: 3.532 cumulative IPC: 3.498 (Simulation time: 00 hr 31 min 45 sec)
Heartbeat CPU 0 instructions: 1050000000 cycles: 264408259 heartbeat IPC: 3.49 cumulative IPC: 3.496 (Simulation time: 00 hr 32 min 06 sec)
Heartbeat CPU 0 instructions: 1060000001 cycles: 267339978 heartbeat IPC: 3.411 cumulative IPC: 3.482 (Simulation time: 00 hr 32 min 28 sec)
Heartbeat CPU 0 instructions: 1070000000 cycles: 270353589 heartbeat IPC: 3.318 cumulative IPC: 3.457 (Simulation time: 00 hr 32 min 50 sec)
Heartbeat CPU 0 instructions: 1080000003 cycles: 273245632 heartbeat IPC: 3.458 cumulative IPC: 3.457 (Simulation time: 00 hr 33 min 12 sec)
Heartbeat CPU 0 instructions: 1090000000 cycles: 276154455 heartbeat IPC: 3.438 cumulative IPC: 3.455 (Simulation time: 00 hr 33 min 34 sec)
Heartbeat CPU 0 instructions: 1100000000 cycles: 278954174 heartbeat IPC: 3.572 cumulative IPC: 3.467 (Simulation time: 00 hr 33 min 56 sec)
Heartbeat CPU 0 instructions: 1110000004 cycles: 281876595 heartbeat IPC: 3.422 cumulative IPC: 3.462 (Simulation time: 00 hr 34 min 18 sec)
Heartbeat CPU 0 instructions: 1120000000 cycles: 284731717 heartbeat IPC: 3.502 cumulative IPC: 3.466 (Simulation time: 00 hr 34 min 40 sec)
Heartbeat CPU 0 instructions: 1130000002 cycles: 287356747 heartbeat IPC: 3.809 cumulative IPC: 3.49 (Simulation time: 00 hr 35 min 01 sec)
Heartbeat CPU 0 instructions: 1140000001 cycles: 290355857 heartbeat IPC: 3.334 cumulative IPC: 3.478 (Simulation time: 00 hr 35 min 23 sec)
Heartbeat CPU 0 instructions: 1150000001 cycles: 293245896 heartbeat IPC: 3.46 cumulative IPC: 3.477 (Simulation time: 00 hr 35 min 45 sec)
Heartbeat CPU 0 instructions: 1160000000 cycles: 296118457 heartbeat IPC: 3.481 cumulative IPC: 3.477 (Simulation time: 00 hr 36 min 06 sec)
Heartbeat CPU 0 instructions: 1170000004 cycles: 298885770 heartbeat IPC: 3.614 cumulative IPC: 3.485 (Simulation time: 00 hr 36 min 28 sec)
Heartbeat CPU 0 instructions: 1180000004 cycles: 301728788 heartbeat IPC: 3.517 cumulative IPC: 3.487 (Simulation time: 00 hr 36 min 49 sec)
Heartbeat CPU 0 instructions: 1190000004 cycles: 304657685 heartbeat IPC: 3.414 cumulative IPC: 3.483 (Simulation time: 00 hr 37 min 10 sec)
Heartbeat CPU 0 instructions: 1200000000 cycles: 307358128 heartbeat IPC: 3.703 cumulative IPC: 3.493 (Simulation time: 00 hr 37 min 31 sec)
Heartbeat CPU 0 instructions: 1210000003 cycles: 310237289 heartbeat IPC: 3.473 cumulative IPC: 3.492 (Simulation time: 00 hr 37 min 52 sec)
Heartbeat CPU 0 instructions: 1220000002 cycles: 314394596 heartbeat IPC: 2.405 cumulative IPC: 3.422 (Simulation time: 00 hr 38 min 17 sec)
Heartbeat CPU 0 instructions: 1230000001 cycles: 319062980 heartbeat IPC: 2.142 cumulative IPC: 3.335 (Simulation time: 00 hr 38 min 44 sec)
Heartbeat CPU 0 instructions: 1240000000 cycles: 325251637 heartbeat IPC: 1.616 cumulative IPC: 3.194 (Simulation time: 00 hr 39 min 15 sec)
Heartbeat CPU 0 instructions: 1250000002 cycles: 331458138 heartbeat IPC: 1.611 cumulative IPC: 3.073 (Simulation time: 00 hr 39 min 46 sec)
Heartbeat CPU 0 instructions: 1260000002 cycles: 334572649 heartbeat IPC: 3.211 cumulative IPC: 3.078 (Simulation time: 00 hr 40 min 08 sec)
Heartbeat CPU 0 instructions: 1270000003 cycles: 337511437 heartbeat IPC: 3.403 cumulative IPC: 3.089 (Simulation time: 00 hr 40 min 29 sec)
Heartbeat CPU 0 instructions: 1280000001 cycles: 340620230 heartbeat IPC: 3.217 cumulative IPC: 3.093 (Simulation time: 00 hr 40 min 52 sec)
Heartbeat CPU 0 instructions: 1290000002 cycles: 343709058 heartbeat IPC: 3.237 cumulative IPC: 3.098 (Simulation time: 00 hr 41 min 14 sec)
Heartbeat CPU 0 instructions: 1300000001 cycles: 346811685 heartbeat IPC: 3.223 cumulative IPC: 3.102 (Simulation time: 00 hr 41 min 37 sec)
Heartbeat CPU 0 instructions: 1310000000 cycles: 349975178 heartbeat IPC: 3.161 cumulative IPC: 3.104 (Simulation time: 00 hr 41 min 59 sec)
Heartbeat CPU 0 instructions: 1320000003 cycles: 356697582 heartbeat IPC: 1.488 cumulative IPC: 3.002 (Simulation time: 00 hr 42 min 32 sec)
Heartbeat CPU 0 instructions: 1330000002 cycles: 363780431 heartbeat IPC: 1.412 cumulative IPC: 2.903 (Simulation time: 00 hr 43 min 06 sec)
Heartbeat CPU 0 instructions: 1340000003 cycles: 369427661 heartbeat IPC: 1.771 cumulative IPC: 2.849 (Simulation time: 00 hr 43 min 36 sec)
Heartbeat CPU 0 instructions: 1350000001 cycles: 372655605 heartbeat IPC: 3.098 cumulative IPC: 2.856 (Simulation time: 00 hr 43 min 58 sec)
Heartbeat CPU 0 instructions: 1360000001 cycles: 375939670 heartbeat IPC: 3.045 cumulative IPC: 2.861 (Simulation time: 00 hr 44 min 20 sec)
Heartbeat CPU 0 instructions: 1370000002 cycles: 379233976 heartbeat IPC: 3.036 cumulative IPC: 2.865 (Simulation time: 00 hr 44 min 41 sec)
Heartbeat CPU 0 instructions: 1380000000 cycles: 385899521 heartbeat IPC: 1.5 cumulative IPC: 2.798 (Simulation time: 00 hr 45 min 12 sec)
Heartbeat CPU 0 instructions: 1390000003 cycles: 393070166 heartbeat IPC: 1.395 cumulative IPC: 2.728 (Simulation time: 00 hr 45 min 44 sec)
Heartbeat CPU 0 instructions: 1400000001 cycles: 397984761 heartbeat IPC: 2.035 cumulative IPC: 2.705 (Simulation time: 00 hr 46 min 10 sec)
Heartbeat CPU 0 instructions: 1410000003 cycles: 400942134 heartbeat IPC: 3.381 cumulative IPC: 2.718 (Simulation time: 00 hr 46 min 31 sec)
Heartbeat CPU 0 instructions: 1420000002 cycles: 403901764 heartbeat IPC: 3.379 cumulative IPC: 2.731 (Simulation time: 00 hr 46 min 52 sec)
Heartbeat CPU 0 instructions: 1430000000 cycles: 406803570 heartbeat IPC: 3.446 cumulative IPC: 2.744 (Simulation time: 00 hr 47 min 12 sec)
Heartbeat CPU 0 instructions: 1440000002 cycles: 409681306 heartbeat IPC: 3.475 cumulative IPC: 2.757 (Simulation time: 00 hr 47 min 32 sec)
Heartbeat CPU 0 instructions: 1450000000 cycles: 412566284 heartbeat IPC: 3.466 cumulative IPC: 2.77 (Simulation time: 00 hr 47 min 52 sec)
Heartbeat CPU 0 instructions: 1460000000 cycles: 415518180 heartbeat IPC: 3.388 cumulative IPC: 2.781 (Simulation time: 00 hr 48 min 13 sec)
Heartbeat CPU 0 instructions: 1470000001 cycles: 418475262 heartbeat IPC: 3.382 cumulative IPC: 2.792 (Simulation time: 00 hr 48 min 33 sec)
Heartbeat CPU 0 instructions: 1480000002 cycles: 421422842 heartbeat IPC: 3.393 cumulative IPC: 2.802 (Simulation time: 00 hr 48 min 53 sec)
Heartbeat CPU 0 instructions: 1490000002 cycles: 424327161 heartbeat IPC: 3.443 cumulative IPC: 2.813 (Simulation time: 00 hr 49 min 13 sec)
Heartbeat CPU 0 instructions: 1500000001 cycles: 427353754 heartbeat IPC: 3.304 cumulative IPC: 2.821 (Simulation time: 00 hr 49 min 34 sec)
Simulation finished CPU 0 instructions: 500000003 cycles: 177246745 cumulative IPC: 2.821 (Simulation time: 00 hr 49 min 34 sec)
Simulation complete CPU 0 instructions: 500000003 cycles: 177246745 cumulative IPC: 2.821 (Simulation time: 00 hr 49 min 34 sec)

ChampSim completed all CPUs

=== Simulation ===
CPU 0 runs traces/600.perlbench_s-210B.champsimtrace.xz
Region of Interest Statistics

CPU 0 cumulative IPC: 2.821 instructions: 500000003 cycles: 177246745
CPU 0 Branch Prediction Accuracy: 97.87% MPKI: 3.197 Average ROB Occupancy at Mispredict: 75.32
Branch type MPKI
BRANCH_DIRECT_JUMP: 0.0578
BRANCH_INDIRECT: 0.296
BRANCH_CONDITIONAL: 2.66
BRANCH_DIRECT_CALL: 0.0136
BRANCH_INDIRECT_CALL: 0.154
BRANCH_RETURN: 0.0117

LLC TOTAL        ACCESS:     353505 HIT:     105931 MISS:     247574
LLC LOAD         ACCESS:     284204 HIT:      62343 MISS:     221861
LLC RFO          ACCESS:      16384 HIT:       4885 MISS:      11499
LLC PREFETCH     ACCESS:          0 HIT:          0 MISS:          0
LLC WRITE        ACCESS:      35619 HIT:      35463 MISS:        156
LLC TRANSLATION  ACCESS:      17298 HIT:       3240 MISS:      14058
LLC PREFETCH REQUESTED:          0 ISSUED:          0 USEFUL:          0 USELESS:          0
LLC AVERAGE MISS LATENCY: 202.2 cycles
cpu0_DTLB TOTAL        ACCESS:  115667502 HIT:  114851228 MISS:     816274
cpu0_DTLB LOAD         ACCESS:  115667502 HIT:  114851228 MISS:     816274
cpu0_DTLB RFO          ACCESS:          0 HIT:          0 MISS:          0
cpu0_DTLB PREFETCH     ACCESS:          0 HIT:          0 MISS:          0
cpu0_DTLB WRITE        ACCESS:          0 HIT:          0 MISS:          0
cpu0_DTLB TRANSLATION  ACCESS:          0 HIT:          0 MISS:          0
cpu0_DTLB PREFETCH REQUESTED:          0 ISSUED:          0 USEFUL:          0 USELESS:          0
cpu0_DTLB AVERAGE MISS LATENCY: 8.986 cycles
cpu0_ITLB TOTAL        ACCESS:    6542232 HIT:    6363289 MISS:     178943
cpu0_ITLB LOAD         ACCESS:    6542232 HIT:    6363289 MISS:     178943
cpu0_ITLB RFO          ACCESS:          0 HIT:          0 MISS:          0
cpu0_ITLB PREFETCH     ACCESS:          0 HIT:          0 MISS:          0
cpu0_ITLB WRITE        ACCESS:          0 HIT:          0 MISS:          0
cpu0_ITLB TRANSLATION  ACCESS:          0 HIT:          0 MISS:          0
cpu0_ITLB PREFETCH REQUESTED:          0 ISSUED:          0 USEFUL:          0 USELESS:          0
cpu0_ITLB AVERAGE MISS LATENCY: 2.185 cycles
cpu0_L1D TOTAL        ACCESS:  165980993 HIT:  164847610 MISS:    1133383
cpu0_L1D LOAD         ACCESS:   63260288 HIT:   62310665 MISS:     949623
cpu0_L1D RFO          ACCESS:          0 HIT:          0 MISS:          0
cpu0_L1D PREFETCH     ACCESS:          0 HIT:          0 MISS:          0
cpu0_L1D WRITE        ACCESS:  102693900 HIT:  102534678 MISS:     159222
cpu0_L1D TRANSLATION  ACCESS:      26805 HIT:       2267 MISS:      24538
cpu0_L1D PREFETCH REQUESTED:          0 ISSUED:          0 USEFUL:          0 USELESS:          0
cpu0_L1D AVERAGE MISS LATENCY: 48.82 cycles
cpu0_L1I TOTAL        ACCESS:    7308692 HIT:    6174134 MISS:    1134558
cpu0_L1I LOAD         ACCESS:    7308692 HIT:    6174134 MISS:    1134558
cpu0_L1I RFO          ACCESS:          0 HIT:          0 MISS:          0
cpu0_L1I PREFETCH     ACCESS:          0 HIT:          0 MISS:          0
cpu0_L1I WRITE        ACCESS:          0 HIT:          0 MISS:          0
cpu0_L1I TRANSLATION  ACCESS:          0 HIT:          0 MISS:          0
cpu0_L1I PREFETCH REQUESTED:          0 ISSUED:          0 USEFUL:          0 USELESS:          0
cpu0_L1I AVERAGE MISS LATENCY: 9.425 cycles
cpu0_L2C TOTAL        ACCESS:    1563307 HIT:    1245099 MISS:     318208
cpu0_L2C LOAD         ACCESS:    1387082 HIT:    1102878 MISS:     284204
cpu0_L2C RFO          ACCESS:      48734 HIT:      32350 MISS:      16384
cpu0_L2C PREFETCH     ACCESS:          0 HIT:          0 MISS:          0
cpu0_L2C WRITE        ACCESS:     103017 HIT:     102695 MISS:        322
cpu0_L2C TRANSLATION  ACCESS:      24474 HIT:       7176 MISS:      17298
cpu0_L2C PREFETCH REQUESTED:          0 ISSUED:          0 USEFUL:          0 USELESS:          0
cpu0_L2C AVERAGE MISS LATENCY: 178.1 cycles
cpu0_STLB TOTAL        ACCESS:     626510 HIT:     603020 MISS:      23490
cpu0_STLB LOAD         ACCESS:     626510 HIT:     603020 MISS:      23490
cpu0_STLB RFO          ACCESS:          0 HIT:          0 MISS:          0
cpu0_STLB PREFETCH     ACCESS:          0 HIT:          0 MISS:          0
cpu0_STLB WRITE        ACCESS:          0 HIT:          0 MISS:          0
cpu0_STLB TRANSLATION  ACCESS:          0 HIT:          0 MISS:          0
cpu0_STLB PREFETCH REQUESTED:          0 ISSUED:          0 USEFUL:          0 USELESS:          0
cpu0_STLB AVERAGE MISS LATENCY: 165.9 cycles

DRAM Statistics

Channel 0 RQ ROW_BUFFER_HIT:      57776
  ROW_BUFFER_MISS:     189641
 AVG DBUS CONGESTED CYCLE: 3.811
WQ ROW_BUFFER_HIT: Channel 0 
  ROW_BUFFER_MISS:      11059
  FULL:      14239
