WARNING: physical memory size is smaller than virtual memory size.

*** ChampSim Multicore Out-of-Order Simulator ***
Warmup Instructions: 1000000000
Simulation Instructions: 500000000
Number of CPUs: 1
Page size: 4096

Off-chip DRAM Size: 4 GiB Channels: 1 Width: 64-bit Data Race: 3200 MT/s
Heartbeat CPU 0 instructions: 10000000 cycles: 2500066 heartbeat IPC: 4 cumulative IPC: 4 (Simulation time: 00 hr 00 min 18 sec)
Heartbeat CPU 0 instructions: 20000000 cycles: 5000066 heartbeat IPC: 4 cumulative IPC: 4 (Simulation time: 00 hr 00 min 35 sec)
Heartbeat CPU 0 instructions: 30000000 cycles: 7500066 heartbeat IPC: 4 cumulative IPC: 4 (Simulation time: 00 hr 00 min 53 sec)
Heartbeat CPU 0 instructions: 40000000 cycles: 10000081 heartbeat IPC: 4 cumulative IPC: 4 (Simulation time: 00 hr 01 min 11 sec)
Heartbeat CPU 0 instructions: 50000002 cycles: 12500146 heartbeat IPC: 4 cumulative IPC: 4 (Simulation time: 00 hr 01 min 32 sec)
Heartbeat CPU 0 instructions: 60000000 cycles: 15000254 heartbeat IPC: 4 cumulative IPC: 4 (Simulation time: 00 hr 01 min 52 sec)
Heartbeat CPU 0 instructions: 70000000 cycles: 17500254 heartbeat IPC: 4 cumulative IPC: 4 (Simulation time: 00 hr 02 min 12 sec)
Heartbeat CPU 0 instructions: 80000000 cycles: 20000254 heartbeat IPC: 4 cumulative IPC: 4 (Simulation time: 00 hr 02 min 32 sec)
Heartbeat CPU 0 instructions: 90000003 cycles: 22500267 heartbeat IPC: 4 cumulative IPC: 4 (Simulation time: 00 hr 02 min 52 sec)
Heartbeat CPU 0 instructions: 100000001 cycles: 25000582 heartbeat IPC: 3.999 cumulative IPC: 4 (Simulation time: 00 hr 03 min 12 sec)
Heartbeat CPU 0 instructions: 110000001 cycles: 27500582 heartbeat IPC: 4 cumulative IPC: 4 (Simulation time: 00 hr 03 min 32 sec)
Heartbeat CPU 0 instructions: 120000001 cycles: 30000582 heartbeat IPC: 4 cumulative IPC: 4 (Simulation time: 00 hr 03 min 51 sec)
Heartbeat CPU 0 instructions: 130000003 cycles: 32500631 heartbeat IPC: 4 cumulative IPC: 4 (Simulation time: 00 hr 04 min 11 sec)
Heartbeat CPU 0 instructions: 140000001 cycles: 35000680 heartbeat IPC: 4 cumulative IPC: 4 (Simulation time: 00 hr 04 min 32 sec)
Heartbeat CPU 0 instructions: 150000001 cycles: 37500680 heartbeat IPC: 4 cumulative IPC: 4 (Simulation time: 00 hr 04 min 52 sec)
Heartbeat CPU 0 instructions: 160000001 cycles: 40000680 heartbeat IPC: 4 cumulative IPC: 4 (Simulation time: 00 hr 05 min 12 sec)
Heartbeat CPU 0 instructions: 170000000 cycles: 42501022 heartbeat IPC: 3.999 cumulative IPC: 4 (Simulation time: 00 hr 05 min 32 sec)
Heartbeat CPU 0 instructions: 180000000 cycles: 45001022 heartbeat IPC: 4 cumulative IPC: 4 (Simulation time: 00 hr 05 min 52 sec)
Heartbeat CPU 0 instructions: 190000000 cycles: 47501022 heartbeat IPC: 4 cumulative IPC: 4 (Simulation time: 00 hr 06 min 12 sec)
Heartbeat CPU 0 instructions: 200000000 cycles: 50001055 heartbeat IPC: 4 cumulative IPC: 4 (Simulation time: 00 hr 06 min 32 sec)
Heartbeat CPU 0 instructions: 210000000 cycles: 52501055 heartbeat IPC: 4 cumulative IPC: 4 (Simulation time: 00 hr 06 min 52 sec)
Heartbeat CPU 0 instructions: 220000000 cycles: 55001055 heartbeat IPC: 4 cumulative IPC: 4 (Simulation time: 00 hr 07 min 13 sec)
Heartbeat CPU 0 instructions: 230000000 cycles: 57501055 heartbeat IPC: 4 cumulative IPC: 4 (Simulation time: 00 hr 07 min 33 sec)
Heartbeat CPU 0 instructions: 240000000 cycles: 60001214 heartbeat IPC: 4 cumulative IPC: 4 (Simulation time: 00 hr 07 min 53 sec)
Heartbeat CPU 0 instructions: 250000003 cycles: 62501395 heartbeat IPC: 4 cumulative IPC: 4 (Simulation time: 00 hr 08 min 13 sec)
Heartbeat CPU 0 instructions: 260000003 cycles: 65001395 heartbeat IPC: 4 cumulative IPC: 4 (Simulation time: 00 hr 08 min 34 sec)
Heartbeat CPU 0 instructions: 270000003 cycles: 67501395 heartbeat IPC: 4 cumulative IPC: 4 (Simulation time: 00 hr 08 min 54 sec)
Heartbeat CPU 0 instructions: 280000003 cycles: 70001395 heartbeat IPC: 4 cumulative IPC: 4 (Simulation time: 00 hr 09 min 14 sec)
Heartbeat CPU 0 instructions: 290000003 cycles: 72501556 heartbeat IPC: 4 cumulative IPC: 4 (Simulation time: 00 hr 09 min 34 sec)
Heartbeat CPU 0 instructions: 300000003 cycles: 75001556 heartbeat IPC: 4 cumulative IPC: 4 (Simulation time: 00 hr 09 min 54 sec)
Heartbeat CPU 0 instructions: 310000002 cycles: 77501760 heartbeat IPC: 4 cumulative IPC: 4 (Simulation time: 00 hr 10 min 14 sec)
Heartbeat CPU 0 instructions: 320000003 cycles: 80002007 heartbeat IPC: 4 cumulative IPC: 4 (Simulation time: 00 hr 10 min 34 sec)
Heartbeat CPU 0 instructions: 330000002 cycles: 82504638 heartbeat IPC: 3.996 cumulative IPC: 4 (Simulation time: 00 hr 10 min 54 sec)
Heartbeat CPU 0 instructions: 340000000 cycles: 85004757 heartbeat IPC: 4 cumulative IPC: 4 (Simulation time: 00 hr 11 min 15 sec)
Heartbeat CPU 0 instructions: 350000000 cycles: 87504757 heartbeat IPC: 4 cumulative IPC: 4 (Simulation time: 00 hr 11 min 35 sec)
Heartbeat CPU 0 instructions: 360000001 cycles: 90012053 heartbeat IPC: 3.988 cumulative IPC: 3.999 (Simulation time: 00 hr 11 min 55 sec)
Heartbeat CPU 0 instructions: 370000001 cycles: 92512053 heartbeat IPC: 4 cumulative IPC: 3.999 (Simulation time: 00 hr 12 min 15 sec)
Heartbeat CPU 0 instructions: 380000002 cycles: 95012065 heartbeat IPC: 4 cumulative IPC: 3.999 (Simulation time: 00 hr 12 min 35 sec)
Heartbeat CPU 0 instructions: 390000003 cycles: 97512079 heartbeat IPC: 4 cumulative IPC: 4 (Simulation time: 00 hr 12 min 55 sec)
Heartbeat CPU 0 instructions: 400000003 cycles: 100012079 heartbeat IPC: 4 cumulative IPC: 4 (Simulation time: 00 hr 13 min 15 sec)
Heartbeat CPU 0 instructions: 410000003 cycles: 102512079 heartbeat IPC: 4 cumulative IPC: 4 (Simulation time: 00 hr 13 min 35 sec)
Heartbeat CPU 0 instructions: 420000003 cycles: 105012134 heartbeat IPC: 4 cumulative IPC: 4 (Simulation time: 00 hr 13 min 55 sec)
Heartbeat CPU 0 instructions: 430000001 cycles: 107512177 heartbeat IPC: 4 cumulative IPC: 4 (Simulation time: 00 hr 14 min 15 sec)
Heartbeat CPU 0 instructions: 440000003 cycles: 110019527 heartbeat IPC: 3.988 cumulative IPC: 3.999 (Simulation time: 00 hr 14 min 35 sec)
Heartbeat CPU 0 instructions: 450000003 cycles: 112519527 heartbeat IPC: 4 cumulative IPC: 3.999 (Simulation time: 00 hr 14 min 55 sec)
Heartbeat CPU 0 instructions: 460000003 cycles: 115019527 heartbeat IPC: 4 cumulative IPC: 3.999 (Simulation time: 00 hr 15 min 16 sec)
Heartbeat CPU 0 instructions: 470000003 cycles: 117528811 heartbeat IPC: 3.985 cumulative IPC: 3.999 (Simulation time: 00 hr 15 min 36 sec)
Heartbeat CPU 0 instructions: 480000003 cycles: 120032741 heartbeat IPC: 3.994 cumulative IPC: 3.999 (Simulation time: 00 hr 15 min 57 sec)
Heartbeat CPU 0 instructions: 490000000 cycles: 122533003 heartbeat IPC: 4 cumulative IPC: 3.999 (Simulation time: 00 hr 16 min 18 sec)
Heartbeat CPU 0 instructions: 500000001 cycles: 125033151 heartbeat IPC: 4 cumulative IPC: 3.999 (Simulation time: 00 hr 16 min 38 sec)
Heartbeat CPU 0 instructions: 510000002 cycles: 127533610 heartbeat IPC: 3.999 cumulative IPC: 3.999 (Simulation time: 00 hr 16 min 59 sec)
Heartbeat CPU 0 instructions: 520000002 cycles: 130042864 heartbeat IPC: 3.985 cumulative IPC: 3.999 (Simulation time: 00 hr 17 min 21 sec)
Heartbeat CPU 0 instructions: 530000003 cycles: 132543233 heartbeat IPC: 3.999 cumulative IPC: 3.999 (Simulation time: 00 hr 17 min 44 sec)
Heartbeat CPU 0 instructions: 540000000 cycles: 135053968 heartbeat IPC: 3.983 cumulative IPC: 3.998 (Simulation time: 00 hr 18 min 05 sec)
Heartbeat CPU 0 instructions: 550000001 cycles: 137558993 heartbeat IPC: 3.992 cumulative IPC: 3.998 (Simulation time: 00 hr 18 min 26 sec)
Heartbeat CPU 0 instructions: 560000001 cycles: 140058993 heartbeat IPC: 4 cumulative IPC: 3.998 (Simulation time: 00 hr 18 min 47 sec)
Heartbeat CPU 0 instructions: 570000001 cycles: 142558993 heartbeat IPC: 4 cumulative IPC: 3.998 (Simulation time: 00 hr 19 min 07 sec)
Heartbeat CPU 0 instructions: 580000001 cycles: 145058993 heartbeat IPC: 4 cumulative IPC: 3.998 (Simulation time: 00 hr 19 min 27 sec)
Heartbeat CPU 0 instructions: 590000000 cycles: 147559791 heartbeat IPC: 3.999 cumulative IPC: 3.998 (Simulation time: 00 hr 19 min 48 sec)
Heartbeat CPU 0 instructions: 600000003 cycles: 150060595 heartbeat IPC: 3.999 cumulative IPC: 3.998 (Simulation time: 00 hr 20 min 09 sec)
Heartbeat CPU 0 instructions: 610000002 cycles: 152561695 heartbeat IPC: 3.998 cumulative IPC: 3.998 (Simulation time: 00 hr 20 min 30 sec)
Heartbeat CPU 0 instructions: 620000002 cycles: 155065382 heartbeat IPC: 3.994 cumulative IPC: 3.998 (Simulation time: 00 hr 20 min 52 sec)
Heartbeat CPU 0 instructions: 630000000 cycles: 157566797 heartbeat IPC: 3.998 cumulative IPC: 3.998 (Simulation time: 00 hr 21 min 13 sec)
Heartbeat CPU 0 instructions: 640000002 cycles: 160066948 heartbeat IPC: 4 cumulative IPC: 3.998 (Simulation time: 00 hr 21 min 34 sec)
Heartbeat CPU 0 instructions: 650000003 cycles: 162567330 heartbeat IPC: 3.999 cumulative IPC: 3.998 (Simulation time: 00 hr 21 min 55 sec)
Heartbeat CPU 0 instructions: 660000002 cycles: 165069844 heartbeat IPC: 3.996 cumulative IPC: 3.998 (Simulation time: 00 hr 22 min 17 sec)
Heartbeat CPU 0 instructions: 670000002 cycles: 167569961 heartbeat IPC: 4 cumulative IPC: 3.998 (Simulation time: 00 hr 22 min 37 sec)
Heartbeat CPU 0 instructions: 680000003 cycles: 170070152 heartbeat IPC: 4 cumulative IPC: 3.998 (Simulation time: 00 hr 22 min 59 sec)
Heartbeat CPU 0 instructions: 690000003 cycles: 172598690 heartbeat IPC: 3.955 cumulative IPC: 3.998 (Simulation time: 00 hr 23 min 20 sec)
Heartbeat CPU 0 instructions: 700000003 cycles: 175098690 heartbeat IPC: 4 cumulative IPC: 3.998 (Simulation time: 00 hr 23 min 40 sec)
Heartbeat CPU 0 instructions: 710000003 cycles: 177598914 heartbeat IPC: 4 cumulative IPC: 3.998 (Simulation time: 00 hr 24 min 00 sec)
Heartbeat CPU 0 instructions: 720000002 cycles: 180099118 heartbeat IPC: 4 cumulative IPC: 3.998 (Simulation time: 00 hr 24 min 20 sec)
Heartbeat CPU 0 instructions: 730000002 cycles: 182599118 heartbeat IPC: 4 cumulative IPC: 3.998 (Simulation time: 00 hr 24 min 41 sec)
Heartbeat CPU 0 instructions: 740000002 cycles: 185099118 heartbeat IPC: 4 cumulative IPC: 3.998 (Simulation time: 00 hr 25 min 01 sec)
Heartbeat CPU 0 instructions: 750000002 cycles: 187599568 heartbeat IPC: 3.999 cumulative IPC: 3.998 (Simulation time: 00 hr 25 min 21 sec)
Heartbeat CPU 0 instructions: 760000001 cycles: 190100003 heartbeat IPC: 3.999 cumulative IPC: 3.998 (Simulation time: 00 hr 25 min 41 sec)
Heartbeat CPU 0 instructions: 770000002 cycles: 192600137 heartbeat IPC: 4 cumulative IPC: 3.998 (Simulation time: 00 hr 26 min 01 sec)
Heartbeat CPU 0 instructions: 780000002 cycles: 195100137 heartbeat IPC: 4 cumulative IPC: 3.998 (Simulation time: 00 hr 26 min 21 sec)
Heartbeat CPU 0 instructions: 790000002 cycles: 197600551 heartbeat IPC: 3.999 cumulative IPC: 3.998 (Simulation time: 00 hr 26 min 41 sec)
Heartbeat CPU 0 instructions: 800000003 cycles: 200100859 heartbeat IPC: 4 cumulative IPC: 3.998 (Simulation time: 00 hr 27 min 02 sec)
Heartbeat CPU 0 instructions: 810000001 cycles: 202601626 heartbeat IPC: 3.999 cumulative IPC: 3.998 (Simulation time: 00 hr 27 min 22 sec)
Heartbeat CPU 0 instructions: 820000001 cycles: 205101626 heartbeat IPC: 4 cumulative IPC: 3.998 (Simulation time: 00 hr 27 min 42 sec)
Heartbeat CPU 0 instructions: 830000001 cycles: 207601626 heartbeat IPC: 4 cumulative IPC: 3.998 (Simulation time: 00 hr 28 min 19 sec)
Heartbeat CPU 0 instructions: 840000002 cycles: 210101832 heartbeat IPC: 4 cumulative IPC: 3.998 (Simulation time: 00 hr 28 min 55 sec)
Heartbeat CPU 0 instructions: 850000003 cycles: 212603309 heartbeat IPC: 3.998 cumulative IPC: 3.998 (Simulation time: 00 hr 29 min 32 sec)
Heartbeat CPU 0 instructions: 860000003 cycles: 215103309 heartbeat IPC: 4 cumulative IPC: 3.998 (Simulation time: 00 hr 30 min 09 sec)
Heartbeat CPU 0 instructions: 870000003 cycles: 217603309 heartbeat IPC: 4 cumulative IPC: 3.998 (Simulation time: 00 hr 30 min 45 sec)
Heartbeat CPU 0 instructions: 880000002 cycles: 220104163 heartbeat IPC: 3.999 cumulative IPC: 3.998 (Simulation time: 00 hr 31 min 22 sec)
Heartbeat CPU 0 instructions: 890000002 cycles: 222604163 heartbeat IPC: 4 cumulative IPC: 3.998 (Simulation time: 00 hr 31 min 59 sec)
Heartbeat CPU 0 instructions: 900000002 cycles: 225104413 heartbeat IPC: 4 cumulative IPC: 3.998 (Simulation time: 00 hr 32 min 35 sec)
Heartbeat CPU 0 instructions: 910000000 cycles: 227604809 heartbeat IPC: 3.999 cumulative IPC: 3.998 (Simulation time: 00 hr 33 min 12 sec)
Heartbeat CPU 0 instructions: 920000001 cycles: 230105226 heartbeat IPC: 3.999 cumulative IPC: 3.998 (Simulation time: 00 hr 33 min 49 sec)
Heartbeat CPU 0 instructions: 930000003 cycles: 232605483 heartbeat IPC: 4 cumulative IPC: 3.998 (Simulation time: 00 hr 34 min 26 sec)
Heartbeat CPU 0 instructions: 940000003 cycles: 235105483 heartbeat IPC: 4 cumulative IPC: 3.998 (Simulation time: 00 hr 35 min 04 sec)
Heartbeat CPU 0 instructions: 950000003 cycles: 237605839 heartbeat IPC: 3.999 cumulative IPC: 3.998 (Simulation time: 00 hr 35 min 40 sec)
Heartbeat CPU 0 instructions: 960000000 cycles: 240106649 heartbeat IPC: 3.999 cumulative IPC: 3.998 (Simulation time: 00 hr 36 min 17 sec)
Heartbeat CPU 0 instructions: 970000003 cycles: 242606710 heartbeat IPC: 4 cumulative IPC: 3.998 (Simulation time: 00 hr 36 min 53 sec)
Heartbeat CPU 0 instructions: 980000002 cycles: 245106714 heartbeat IPC: 4 cumulative IPC: 3.998 (Simulation time: 00 hr 37 min 13 sec)
Heartbeat CPU 0 instructions: 990000003 cycles: 247608272 heartbeat IPC: 3.998 cumulative IPC: 3.998 (Simulation time: 00 hr 37 min 41 sec)
Heartbeat CPU 0 instructions: 1000000003 cycles: 250108272 heartbeat IPC: 4 cumulative IPC: 3.998 (Simulation time: 00 hr 38 min 12 sec)
Warmup finished CPU 0 instructions: 1000000003 cycles: 250108273 cumulative IPC: 3.998 (Simulation time: 00 hr 38 min 12 sec)
Warmup complete CPU 0 instructions: 1000000003 cycles: 250108273 cumulative IPC: 3.998 (Simulation time: 00 hr 38 min 12 sec)
Heartbeat CPU 0 instructions: 1010000001 cycles: 253183653 heartbeat IPC: 3.252 cumulative IPC: 3.252 (Simulation time: 00 hr 38 min 42 sec)
Heartbeat CPU 0 instructions: 1020000003 cycles: 256144359 heartbeat IPC: 3.378 cumulative IPC: 3.313 (Simulation time: 00 hr 39 min 23 sec)
Heartbeat CPU 0 instructions: 1030000000 cycles: 259151282 heartbeat IPC: 3.326 cumulative IPC: 3.317 (Simulation time: 00 hr 40 min 05 sec)
Heartbeat CPU 0 instructions: 1040000000 cycles: 262141426 heartbeat IPC: 3.344 cumulative IPC: 3.324 (Simulation time: 00 hr 40 min 30 sec)
Heartbeat CPU 0 instructions: 1050000000 cycles: 265103967 heartbeat IPC: 3.375 cumulative IPC: 3.334 (Simulation time: 00 hr 41 min 12 sec)
Heartbeat CPU 0 instructions: 1060000001 cycles: 268127647 heartbeat IPC: 3.307 cumulative IPC: 3.33 (Simulation time: 00 hr 41 min 56 sec)
Heartbeat CPU 0 instructions: 1070000000 cycles: 271258422 heartbeat IPC: 3.194 cumulative IPC: 3.31 (Simulation time: 00 hr 42 min 40 sec)
Heartbeat CPU 0 instructions: 1080000003 cycles: 274242699 heartbeat IPC: 3.351 cumulative IPC: 3.315 (Simulation time: 00 hr 43 min 24 sec)
Heartbeat CPU 0 instructions: 1090000000 cycles: 277229247 heartbeat IPC: 3.348 cumulative IPC: 3.318 (Simulation time: 00 hr 44 min 08 sec)
Heartbeat CPU 0 instructions: 1100000000 cycles: 280295404 heartbeat IPC: 3.261 cumulative IPC: 3.313 (Simulation time: 00 hr 44 min 44 sec)
Heartbeat CPU 0 instructions: 1110000004 cycles: 283305385 heartbeat IPC: 3.322 cumulative IPC: 3.314 (Simulation time: 00 hr 45 min 11 sec)
Heartbeat CPU 0 instructions: 1120000000 cycles: 286246136 heartbeat IPC: 3.4 cumulative IPC: 3.321 (Simulation time: 00 hr 45 min 36 sec)
Heartbeat CPU 0 instructions: 1130000002 cycles: 288894144 heartbeat IPC: 3.776 cumulative IPC: 3.352 (Simulation time: 00 hr 46 min 00 sec)
Heartbeat CPU 0 instructions: 1140000002 cycles: 292027707 heartbeat IPC: 3.191 cumulative IPC: 3.34 (Simulation time: 00 hr 46 min 25 sec)
Heartbeat CPU 0 instructions: 1150000000 cycles: 295036216 heartbeat IPC: 3.324 cumulative IPC: 3.339 (Simulation time: 00 hr 46 min 50 sec)
Heartbeat CPU 0 instructions: 1160000000 cycles: 298074931 heartbeat IPC: 3.291 cumulative IPC: 3.336 (Simulation time: 00 hr 47 min 14 sec)
Heartbeat CPU 0 instructions: 1170000003 cycles: 301006856 heartbeat IPC: 3.411 cumulative IPC: 3.34 (Simulation time: 00 hr 47 min 39 sec)
Heartbeat CPU 0 instructions: 1180000004 cycles: 304085956 heartbeat IPC: 3.248 cumulative IPC: 3.335 (Simulation time: 00 hr 48 min 03 sec)
Heartbeat CPU 0 instructions: 1190000004 cycles: 307194243 heartbeat IPC: 3.217 cumulative IPC: 3.328 (Simulation time: 00 hr 48 min 42 sec)
Heartbeat CPU 0 instructions: 1200000000 cycles: 310059713 heartbeat IPC: 3.49 cumulative IPC: 3.336 (Simulation time: 00 hr 49 min 23 sec)
Heartbeat CPU 0 instructions: 1210000003 cycles: 313043235 heartbeat IPC: 3.352 cumulative IPC: 3.337 (Simulation time: 00 hr 50 min 06 sec)
Heartbeat CPU 0 instructions: 1220000001 cycles: 317245090 heartbeat IPC: 2.38 cumulative IPC: 3.277 (Simulation time: 00 hr 50 min 54 sec)
Heartbeat CPU 0 instructions: 1230000003 cycles: 322006084 heartbeat IPC: 2.1 cumulative IPC: 3.199 (Simulation time: 00 hr 51 min 36 sec)
Heartbeat CPU 0 instructions: 1240000000 cycles: 327919630 heartbeat IPC: 1.691 cumulative IPC: 3.084 (Simulation time: 00 hr 52 min 12 sec)
Heartbeat CPU 0 instructions: 1250000002 cycles: 334134860 heartbeat IPC: 1.609 cumulative IPC: 2.975 (Simulation time: 00 hr 52 min 48 sec)
Heartbeat CPU 0 instructions: 1260000002 cycles: 337460411 heartbeat IPC: 3.007 cumulative IPC: 2.976 (Simulation time: 00 hr 53 min 14 sec)
Heartbeat CPU 0 instructions: 1270000003 cycles: 340627004 heartbeat IPC: 3.158 cumulative IPC: 2.983 (Simulation time: 00 hr 53 min 39 sec)
Heartbeat CPU 0 instructions: 1280000001 cycles: 343987586 heartbeat IPC: 2.976 cumulative IPC: 2.983 (Simulation time: 00 hr 54 min 16 sec)
Heartbeat CPU 0 instructions: 1290000002 cycles: 347260975 heartbeat IPC: 3.055 cumulative IPC: 2.985 (Simulation time: 00 hr 55 min 03 sec)
Heartbeat CPU 0 instructions: 1300000001 cycles: 350531028 heartbeat IPC: 3.058 cumulative IPC: 2.987 (Simulation time: 00 hr 55 min 50 sec)
Heartbeat CPU 0 instructions: 1310000000 cycles: 353898467 heartbeat IPC: 2.97 cumulative IPC: 2.987 (Simulation time: 00 hr 56 min 37 sec)
Heartbeat CPU 0 instructions: 1320000003 cycles: 360437582 heartbeat IPC: 1.529 cumulative IPC: 2.9 (Simulation time: 00 hr 57 min 43 sec)
Heartbeat CPU 0 instructions: 1330000002 cycles: 367141275 heartbeat IPC: 1.492 cumulative IPC: 2.82 (Simulation time: 00 hr 58 min 55 sec)
Heartbeat CPU 0 instructions: 1340000002 cycles: 372946071 heartbeat IPC: 1.723 cumulative IPC: 2.768 (Simulation time: 00 hr 59 min 42 sec)
Heartbeat CPU 0 instructions: 1350000001 cycles: 376371559 heartbeat IPC: 2.919 cumulative IPC: 2.772 (Simulation time: 01 hr 00 min 09 sec)
Heartbeat CPU 0 instructions: 1360000001 cycles: 379859960 heartbeat IPC: 2.867 cumulative IPC: 2.775 (Simulation time: 01 hr 00 min 36 sec)
Heartbeat CPU 0 instructions: 1370000002 cycles: 383330100 heartbeat IPC: 2.882 cumulative IPC: 2.777 (Simulation time: 01 hr 01 min 07 sec)
Heartbeat CPU 0 instructions: 1380000000 cycles: 389904785 heartbeat IPC: 1.521 cumulative IPC: 2.718 (Simulation time: 01 hr 02 min 17 sec)
Heartbeat CPU 0 instructions: 1390000003 cycles: 396697963 heartbeat IPC: 1.472 cumulative IPC: 2.66 (Simulation time: 01 hr 03 min 28 sec)
Heartbeat CPU 0 instructions: 1400000001 cycles: 401820788 heartbeat IPC: 1.952 cumulative IPC: 2.637 (Simulation time: 01 hr 04 min 26 sec)
Heartbeat CPU 0 instructions: 1410000003 cycles: 404995015 heartbeat IPC: 3.15 cumulative IPC: 2.647 (Simulation time: 01 hr 05 min 10 sec)
Heartbeat CPU 0 instructions: 1420000002 cycles: 408085897 heartbeat IPC: 3.235 cumulative IPC: 2.659 (Simulation time: 01 hr 05 min 54 sec)
Heartbeat CPU 0 instructions: 1430000001 cycles: 411210230 heartbeat IPC: 3.201 cumulative IPC: 2.669 (Simulation time: 01 hr 06 min 38 sec)
Heartbeat CPU 0 instructions: 1440000002 cycles: 414207607 heartbeat IPC: 3.336 cumulative IPC: 2.681 (Simulation time: 01 hr 07 min 21 sec)
Heartbeat CPU 0 instructions: 1450000000 cycles: 417336443 heartbeat IPC: 3.196 cumulative IPC: 2.691 (Simulation time: 01 hr 08 min 05 sec)
Heartbeat CPU 0 instructions: 1460000000 cycles: 420425331 heartbeat IPC: 3.237 cumulative IPC: 2.701 (Simulation time: 01 hr 08 min 49 sec)
Heartbeat CPU 0 instructions: 1470000004 cycles: 423582884 heartbeat IPC: 3.167 cumulative IPC: 2.709 (Simulation time: 01 hr 09 min 21 sec)
Heartbeat CPU 0 instructions: 1480000002 cycles: 426646461 heartbeat IPC: 3.264 cumulative IPC: 2.719 (Simulation time: 01 hr 10 min 06 sec)
Heartbeat CPU 0 instructions: 1490000002 cycles: 429697503 heartbeat IPC: 3.278 cumulative IPC: 2.728 (Simulation time: 01 hr 10 min 34 sec)
Heartbeat CPU 0 instructions: 1500000003 cycles: 432817254 heartbeat IPC: 3.205 cumulative IPC: 2.737 (Simulation time: 01 hr 11 min 18 sec)
Simulation finished CPU 0 instructions: 500000000 cycles: 182708982 cumulative IPC: 2.737 (Simulation time: 01 hr 11 min 18 sec)
Simulation complete CPU 0 instructions: 500000000 cycles: 182708982 cumulative IPC: 2.737 (Simulation time: 01 hr 11 min 18 sec)

ChampSim completed all CPUs

=== Simulation ===
CPU 0 runs traces/600.perlbench_s-210B.champsimtrace.xz
Region of Interest Statistics

CPU 0 cumulative IPC: 2.737 instructions: 500000000 cycles: 182708982
CPU 0 Branch Prediction Accuracy: 97.56% MPKI: 3.656 Average ROB Occupancy at Mispredict: 73.45
Branch type MPKI
BRANCH_DIRECT_JUMP: 0.0578
BRANCH_INDIRECT: 0.296
BRANCH_CONDITIONAL: 3.12
BRANCH_DIRECT_CALL: 0.0136
BRANCH_INDIRECT_CALL: 0.154
BRANCH_RETURN: 0.0117

LLC TOTAL        ACCESS:     352638 HIT:     104926 MISS:     247712
LLC LOAD         ACCESS:     283398 HIT:      61433 MISS:     221965
LLC RFO          ACCESS:      16373 HIT:       4920 MISS:      11453
LLC PREFETCH     ACCESS:          0 HIT:          0 MISS:          0
LLC WRITE        ACCESS:      35495 HIT:      35288 MISS:        207
LLC TRANSLATION  ACCESS:      17372 HIT:       3285 MISS:      14087
LLC PREFETCH REQUESTED:          0 ISSUED:          0 USEFUL:          0 USELESS:          0
LLC AVERAGE MISS LATENCY: 196.2 cycles
cpu0_DTLB TOTAL        ACCESS:  117446610 HIT:  116633109 MISS:     813501
cpu0_DTLB LOAD         ACCESS:  117446610 HIT:  116633109 MISS:     813501
cpu0_DTLB RFO          ACCESS:          0 HIT:          0 MISS:          0
cpu0_DTLB PREFETCH     ACCESS:          0 HIT:          0 MISS:          0
cpu0_DTLB WRITE        ACCESS:          0 HIT:          0 MISS:          0
cpu0_DTLB TRANSLATION  ACCESS:          0 HIT:          0 MISS:          0
cpu0_DTLB PREFETCH REQUESTED:          0 ISSUED:          0 USEFUL:          0 USELESS:          0
cpu0_DTLB AVERAGE MISS LATENCY: 9.096 cycles
cpu0_ITLB TOTAL        ACCESS:    6522821 HIT:    6339577 MISS:     183244
cpu0_ITLB LOAD         ACCESS:    6522821 HIT:    6339577 MISS:     183244
cpu0_ITLB RFO          ACCESS:          0 HIT:          0 MISS:          0
cpu0_ITLB PREFETCH     ACCESS:          0 HIT:          0 MISS:          0
cpu0_ITLB WRITE        ACCESS:          0 HIT:          0 MISS:          0
cpu0_ITLB TRANSLATION  ACCESS:          0 HIT:          0 MISS:          0
cpu0_ITLB PREFETCH REQUESTED:          0 ISSUED:          0 USEFUL:          0 USELESS:          0
cpu0_ITLB AVERAGE MISS LATENCY: 2.12 cycles
cpu0_L1D TOTAL        ACCESS:  168563483 HIT:  167437494 MISS:    1125989
cpu0_L1D LOAD         ACCESS:   66066449 HIT:   65124578 MISS:     941871
cpu0_L1D RFO          ACCESS:          0 HIT:          0 MISS:          0
cpu0_L1D PREFETCH     ACCESS:          0 HIT:          0 MISS:          0
cpu0_L1D WRITE        ACCESS:  102470233 HIT:  102310660 MISS:     159573
cpu0_L1D TRANSLATION  ACCESS:      26801 HIT:       2256 MISS:      24545
cpu0_L1D PREFETCH REQUESTED:          0 ISSUED:          0 USEFUL:          0 USELESS:          0
cpu0_L1D AVERAGE MISS LATENCY: 49.18 cycles
cpu0_L1I TOTAL        ACCESS:    7292790 HIT:    6148871 MISS:    1143919
cpu0_L1I LOAD         ACCESS:    7292790 HIT:    6148871 MISS:    1143919
cpu0_L1I RFO          ACCESS:          0 HIT:          0 MISS:          0
cpu0_L1I PREFETCH     ACCESS:          0 HIT:          0 MISS:          0
cpu0_L1I WRITE        ACCESS:          0 HIT:          0 MISS:          0
cpu0_L1I TRANSLATION  ACCESS:          0 HIT:          0 MISS:          0
cpu0_L1I PREFETCH REQUESTED:          0 ISSUED:          0 USEFUL:          0 USELESS:          0
cpu0_L1I AVERAGE MISS LATENCY: 9.373 cycles
cpu0_L2C TOTAL        ACCESS:    1563717 HIT:    1246222 MISS:     317495
cpu0_L2C LOAD         ACCESS:    1387185 HIT:    1103787 MISS:     283398
cpu0_L2C RFO          ACCESS:      48591 HIT:      32218 MISS:      16373
cpu0_L2C PREFETCH     ACCESS:          0 HIT:          0 MISS:          0
cpu0_L2C WRITE        ACCESS:     103461 HIT:     103109 MISS:        352
cpu0_L2C TRANSLATION  ACCESS:      24480 HIT:       7108 MISS:      17372
cpu0_L2C PREFETCH REQUESTED:          0 ISSUED:          0 USEFUL:          0 USELESS:          0
cpu0_L2C AVERAGE MISS LATENCY: 173.9 cycles
cpu0_STLB TOTAL        ACCESS:     626638 HIT:     603151 MISS:      23487
cpu0_STLB LOAD         ACCESS:     626638 HIT:     603151 MISS:      23487
cpu0_STLB RFO          ACCESS:          0 HIT:          0 MISS:          0
cpu0_STLB PREFETCH     ACCESS:          0 HIT:          0 MISS:          0
cpu0_STLB WRITE        ACCESS:          0 HIT:          0 MISS:          0
cpu0_STLB TRANSLATION  ACCESS:          0 HIT:          0 MISS:          0
cpu0_STLB PREFETCH REQUESTED:          0 ISSUED:          0 USEFUL:          0 USELESS:          0
cpu0_STLB AVERAGE MISS LATENCY: 167.1 cycles

DRAM Statistics

Channel 0 RQ ROW_BUFFER_HIT:      57554
  ROW_BUFFER_MISS:     189948
 AVG DBUS CONGESTED CYCLE: 3.793
WQ ROW_BUFFER_HIT: Channel 0 
  ROW_BUFFER_MISS:      12038
  FULL:      13110
