WARNING: physical memory size is smaller than virtual memory size.

*** ChampSim Multicore Out-of-Order Simulator ***
Warmup Instructions: 1000000000
Simulation Instructions: 500000000
Number of CPUs: 1
Page size: 4096

Off-chip DRAM Size: 4 GiB Channels: 1 Width: 64-bit Data Race: 3200 MT/s
Heartbeat CPU 0 instructions: 10000000 cycles: 2500066 heartbeat IPC: 4 cumulative IPC: 4 (Simulation time: 00 hr 00 min 16 sec)
Heartbeat CPU 0 instructions: 20000000 cycles: 5000066 heartbeat IPC: 4 cumulative IPC: 4 (Simulation time: 00 hr 00 min 32 sec)
Heartbeat CPU 0 instructions: 30000000 cycles: 7500066 heartbeat IPC: 4 cumulative IPC: 4 (Simulation time: 00 hr 00 min 48 sec)
Heartbeat CPU 0 instructions: 40000000 cycles: 10000066 heartbeat IPC: 4 cumulative IPC: 4 (Simulation time: 00 hr 01 min 05 sec)
Heartbeat CPU 0 instructions: 50000002 cycles: 12500111 heartbeat IPC: 4 cumulative IPC: 4 (Simulation time: 00 hr 01 min 21 sec)
Heartbeat CPU 0 instructions: 60000000 cycles: 15000216 heartbeat IPC: 4 cumulative IPC: 4 (Simulation time: 00 hr 01 min 37 sec)
Heartbeat CPU 0 instructions: 70000000 cycles: 17500216 heartbeat IPC: 4 cumulative IPC: 4 (Simulation time: 00 hr 01 min 54 sec)
Heartbeat CPU 0 instructions: 80000000 cycles: 20000216 heartbeat IPC: 4 cumulative IPC: 4 (Simulation time: 00 hr 02 min 10 sec)
Heartbeat CPU 0 instructions: 90000000 cycles: 22500216 heartbeat IPC: 4 cumulative IPC: 4 (Simulation time: 00 hr 02 min 26 sec)
Heartbeat CPU 0 instructions: 100000001 cycles: 25000531 heartbeat IPC: 3.999 cumulative IPC: 4 (Simulation time: 00 hr 02 min 43 sec)
Heartbeat CPU 0 instructions: 110000001 cycles: 27500531 heartbeat IPC: 4 cumulative IPC: 4 (Simulation time: 00 hr 03 min 00 sec)
Heartbeat CPU 0 instructions: 120000001 cycles: 30000531 heartbeat IPC: 4 cumulative IPC: 4 (Simulation time: 00 hr 03 min 17 sec)
Heartbeat CPU 0 instructions: 130000003 cycles: 32500578 heartbeat IPC: 4 cumulative IPC: 4 (Simulation time: 00 hr 03 min 34 sec)
Heartbeat CPU 0 instructions: 140000001 cycles: 35000624 heartbeat IPC: 4 cumulative IPC: 4 (Simulation time: 00 hr 03 min 51 sec)
Heartbeat CPU 0 instructions: 150000001 cycles: 37500624 heartbeat IPC: 4 cumulative IPC: 4 (Simulation time: 00 hr 04 min 08 sec)
Heartbeat CPU 0 instructions: 160000001 cycles: 40000624 heartbeat IPC: 4 cumulative IPC: 4 (Simulation time: 00 hr 04 min 26 sec)
Heartbeat CPU 0 instructions: 170000000 cycles: 42500953 heartbeat IPC: 3.999 cumulative IPC: 4 (Simulation time: 00 hr 04 min 42 sec)
Heartbeat CPU 0 instructions: 180000000 cycles: 45000953 heartbeat IPC: 4 cumulative IPC: 4 (Simulation time: 00 hr 05 min 00 sec)
Heartbeat CPU 0 instructions: 190000000 cycles: 47500953 heartbeat IPC: 4 cumulative IPC: 4 (Simulation time: 00 hr 05 min 17 sec)
Heartbeat CPU 0 instructions: 200000000 cycles: 50000986 heartbeat IPC: 4 cumulative IPC: 4 (Simulation time: 00 hr 05 min 33 sec)
Heartbeat CPU 0 instructions: 210000000 cycles: 52500986 heartbeat IPC: 4 cumulative IPC: 4 (Simulation time: 00 hr 05 min 50 sec)
Heartbeat CPU 0 instructions: 220000000 cycles: 55000986 heartbeat IPC: 4 cumulative IPC: 4 (Simulation time: 00 hr 06 min 08 sec)
Heartbeat CPU 0 instructions: 230000000 cycles: 57500986 heartbeat IPC: 4 cumulative IPC: 4 (Simulation time: 00 hr 06 min 25 sec)
Heartbeat CPU 0 instructions: 240000000 cycles: 60001143 heartbeat IPC: 4 cumulative IPC: 4 (Simulation time: 00 hr 06 min 42 sec)
Heartbeat CPU 0 instructions: 250000003 cycles: 62501322 heartbeat IPC: 4 cumulative IPC: 4 (Simulation time: 00 hr 06 min 59 sec)
Heartbeat CPU 0 instructions: 260000003 cycles: 65001322 heartbeat IPC: 4 cumulative IPC: 4 (Simulation time: 00 hr 07 min 16 sec)
Heartbeat CPU 0 instructions: 270000003 cycles: 67501322 heartbeat IPC: 4 cumulative IPC: 4 (Simulation time: 00 hr 07 min 33 sec)
Heartbeat CPU 0 instructions: 280000003 cycles: 70001322 heartbeat IPC: 4 cumulative IPC: 4 (Simulation time: 00 hr 07 min 50 sec)
Heartbeat CPU 0 instructions: 290000003 cycles: 72501465 heartbeat IPC: 4 cumulative IPC: 4 (Simulation time: 00 hr 08 min 07 sec)
Heartbeat CPU 0 instructions: 300000003 cycles: 75001465 heartbeat IPC: 4 cumulative IPC: 4 (Simulation time: 00 hr 08 min 24 sec)
Heartbeat CPU 0 instructions: 310000002 cycles: 77501665 heartbeat IPC: 4 cumulative IPC: 4 (Simulation time: 00 hr 08 min 41 sec)
Heartbeat CPU 0 instructions: 320000003 cycles: 80001912 heartbeat IPC: 4 cumulative IPC: 4 (Simulation time: 00 hr 08 min 58 sec)
Heartbeat CPU 0 instructions: 330000002 cycles: 82504543 heartbeat IPC: 3.996 cumulative IPC: 4 (Simulation time: 00 hr 09 min 16 sec)
Heartbeat CPU 0 instructions: 340000000 cycles: 85004662 heartbeat IPC: 4 cumulative IPC: 4 (Simulation time: 00 hr 09 min 32 sec)
Heartbeat CPU 0 instructions: 350000000 cycles: 87504662 heartbeat IPC: 4 cumulative IPC: 4 (Simulation time: 00 hr 09 min 49 sec)
Heartbeat CPU 0 instructions: 360000001 cycles: 90011947 heartbeat IPC: 3.988 cumulative IPC: 3.999 (Simulation time: 00 hr 10 min 06 sec)
Heartbeat CPU 0 instructions: 370000001 cycles: 92511947 heartbeat IPC: 4 cumulative IPC: 3.999 (Simulation time: 00 hr 10 min 23 sec)
Heartbeat CPU 0 instructions: 380000002 cycles: 95011960 heartbeat IPC: 4 cumulative IPC: 3.999 (Simulation time: 00 hr 10 min 40 sec)
Heartbeat CPU 0 instructions: 390000003 cycles: 97511973 heartbeat IPC: 4 cumulative IPC: 4 (Simulation time: 00 hr 10 min 57 sec)
Heartbeat CPU 0 instructions: 400000003 cycles: 100011973 heartbeat IPC: 4 cumulative IPC: 4 (Simulation time: 00 hr 11 min 15 sec)
Heartbeat CPU 0 instructions: 410000003 cycles: 102511973 heartbeat IPC: 4 cumulative IPC: 4 (Simulation time: 00 hr 11 min 32 sec)
Heartbeat CPU 0 instructions: 420000003 cycles: 105012026 heartbeat IPC: 4 cumulative IPC: 4 (Simulation time: 00 hr 11 min 49 sec)
Heartbeat CPU 0 instructions: 430000001 cycles: 107512067 heartbeat IPC: 4 cumulative IPC: 4 (Simulation time: 00 hr 12 min 06 sec)
Heartbeat CPU 0 instructions: 440000003 cycles: 110019397 heartbeat IPC: 3.988 cumulative IPC: 3.999 (Simulation time: 00 hr 12 min 23 sec)
Heartbeat CPU 0 instructions: 450000003 cycles: 112519397 heartbeat IPC: 4 cumulative IPC: 3.999 (Simulation time: 00 hr 12 min 40 sec)
Heartbeat CPU 0 instructions: 460000003 cycles: 115019397 heartbeat IPC: 4 cumulative IPC: 3.999 (Simulation time: 00 hr 12 min 57 sec)
Heartbeat CPU 0 instructions: 470000003 cycles: 117528600 heartbeat IPC: 3.985 cumulative IPC: 3.999 (Simulation time: 00 hr 13 min 15 sec)
Heartbeat CPU 0 instructions: 480000003 cycles: 120032437 heartbeat IPC: 3.994 cumulative IPC: 3.999 (Simulation time: 00 hr 13 min 32 sec)
Heartbeat CPU 0 instructions: 490000000 cycles: 122532691 heartbeat IPC: 4 cumulative IPC: 3.999 (Simulation time: 00 hr 13 min 50 sec)
Heartbeat CPU 0 instructions: 500000001 cycles: 125032839 heartbeat IPC: 4 cumulative IPC: 3.999 (Simulation time: 00 hr 14 min 07 sec)
Heartbeat CPU 0 instructions: 510000002 cycles: 127533298 heartbeat IPC: 3.999 cumulative IPC: 3.999 (Simulation time: 00 hr 14 min 25 sec)
Heartbeat CPU 0 instructions: 520000002 cycles: 130042519 heartbeat IPC: 3.985 cumulative IPC: 3.999 (Simulation time: 00 hr 14 min 43 sec)
Heartbeat CPU 0 instructions: 530000003 cycles: 132542888 heartbeat IPC: 3.999 cumulative IPC: 3.999 (Simulation time: 00 hr 15 min 02 sec)
Heartbeat CPU 0 instructions: 540000000 cycles: 135053583 heartbeat IPC: 3.983 cumulative IPC: 3.998 (Simulation time: 00 hr 15 min 20 sec)
Heartbeat CPU 0 instructions: 550000001 cycles: 137558452 heartbeat IPC: 3.992 cumulative IPC: 3.998 (Simulation time: 00 hr 15 min 38 sec)
Heartbeat CPU 0 instructions: 560000001 cycles: 140058452 heartbeat IPC: 4 cumulative IPC: 3.998 (Simulation time: 00 hr 15 min 55 sec)
Heartbeat CPU 0 instructions: 570000001 cycles: 142558452 heartbeat IPC: 4 cumulative IPC: 3.998 (Simulation time: 00 hr 16 min 12 sec)
Heartbeat CPU 0 instructions: 580000001 cycles: 145058452 heartbeat IPC: 4 cumulative IPC: 3.998 (Simulation time: 00 hr 16 min 29 sec)
Heartbeat CPU 0 instructions: 590000000 cycles: 147559248 heartbeat IPC: 3.999 cumulative IPC: 3.998 (Simulation time: 00 hr 16 min 46 sec)
Heartbeat CPU 0 instructions: 600000003 cycles: 150060002 heartbeat IPC: 3.999 cumulative IPC: 3.998 (Simulation time: 00 hr 17 min 04 sec)
Heartbeat CPU 0 instructions: 610000002 cycles: 152561033 heartbeat IPC: 3.998 cumulative IPC: 3.998 (Simulation time: 00 hr 17 min 22 sec)
Heartbeat CPU 0 instructions: 620000001 cycles: 155064616 heartbeat IPC: 3.994 cumulative IPC: 3.998 (Simulation time: 00 hr 17 min 40 sec)
Heartbeat CPU 0 instructions: 630000000 cycles: 157565995 heartbeat IPC: 3.998 cumulative IPC: 3.998 (Simulation time: 00 hr 17 min 58 sec)
Heartbeat CPU 0 instructions: 640000002 cycles: 160066123 heartbeat IPC: 4 cumulative IPC: 3.998 (Simulation time: 00 hr 18 min 16 sec)
Heartbeat CPU 0 instructions: 650000000 cycles: 162566476 heartbeat IPC: 3.999 cumulative IPC: 3.998 (Simulation time: 00 hr 18 min 34 sec)
Heartbeat CPU 0 instructions: 660000001 cycles: 165068883 heartbeat IPC: 3.996 cumulative IPC: 3.998 (Simulation time: 00 hr 18 min 52 sec)
Heartbeat CPU 0 instructions: 670000002 cycles: 167568987 heartbeat IPC: 4 cumulative IPC: 3.998 (Simulation time: 00 hr 19 min 09 sec)
Heartbeat CPU 0 instructions: 680000003 cycles: 170069151 heartbeat IPC: 4 cumulative IPC: 3.998 (Simulation time: 00 hr 19 min 27 sec)
Heartbeat CPU 0 instructions: 690000000 cycles: 172597520 heartbeat IPC: 3.955 cumulative IPC: 3.998 (Simulation time: 00 hr 19 min 45 sec)
Heartbeat CPU 0 instructions: 700000000 cycles: 175097520 heartbeat IPC: 4 cumulative IPC: 3.998 (Simulation time: 00 hr 20 min 02 sec)
Heartbeat CPU 0 instructions: 710000003 cycles: 177597725 heartbeat IPC: 4 cumulative IPC: 3.998 (Simulation time: 00 hr 20 min 19 sec)
Heartbeat CPU 0 instructions: 720000003 cycles: 180097899 heartbeat IPC: 4 cumulative IPC: 3.998 (Simulation time: 00 hr 20 min 36 sec)
Heartbeat CPU 0 instructions: 730000003 cycles: 182597899 heartbeat IPC: 4 cumulative IPC: 3.998 (Simulation time: 00 hr 20 min 53 sec)
Heartbeat CPU 0 instructions: 740000003 cycles: 185097899 heartbeat IPC: 4 cumulative IPC: 3.998 (Simulation time: 00 hr 21 min 10 sec)
Heartbeat CPU 0 instructions: 750000003 cycles: 187598337 heartbeat IPC: 3.999 cumulative IPC: 3.998 (Simulation time: 00 hr 21 min 27 sec)
Heartbeat CPU 0 instructions: 760000001 cycles: 190098730 heartbeat IPC: 3.999 cumulative IPC: 3.998 (Simulation time: 00 hr 21 min 44 sec)
Heartbeat CPU 0 instructions: 770000001 cycles: 192598852 heartbeat IPC: 4 cumulative IPC: 3.998 (Simulation time: 00 hr 22 min 01 sec)
Heartbeat CPU 0 instructions: 780000001 cycles: 195098852 heartbeat IPC: 4 cumulative IPC: 3.998 (Simulation time: 00 hr 22 min 18 sec)
Heartbeat CPU 0 instructions: 790000003 cycles: 197599215 heartbeat IPC: 3.999 cumulative IPC: 3.998 (Simulation time: 00 hr 22 min 35 sec)
Heartbeat CPU 0 instructions: 800000003 cycles: 200099519 heartbeat IPC: 4 cumulative IPC: 3.998 (Simulation time: 00 hr 22 min 52 sec)
Heartbeat CPU 0 instructions: 810000001 cycles: 202600256 heartbeat IPC: 3.999 cumulative IPC: 3.998 (Simulation time: 00 hr 23 min 09 sec)
Heartbeat CPU 0 instructions: 820000001 cycles: 205100256 heartbeat IPC: 4 cumulative IPC: 3.998 (Simulation time: 00 hr 23 min 26 sec)
Heartbeat CPU 0 instructions: 830000001 cycles: 207600256 heartbeat IPC: 4 cumulative IPC: 3.998 (Simulation time: 00 hr 23 min 43 sec)
Heartbeat CPU 0 instructions: 840000003 cycles: 210100433 heartbeat IPC: 4 cumulative IPC: 3.998 (Simulation time: 00 hr 24 min 00 sec)
Heartbeat CPU 0 instructions: 850000003 cycles: 212601906 heartbeat IPC: 3.998 cumulative IPC: 3.998 (Simulation time: 00 hr 24 min 17 sec)
Heartbeat CPU 0 instructions: 860000003 cycles: 215101906 heartbeat IPC: 4 cumulative IPC: 3.998 (Simulation time: 00 hr 24 min 34 sec)
Heartbeat CPU 0 instructions: 870000003 cycles: 217601906 heartbeat IPC: 4 cumulative IPC: 3.998 (Simulation time: 00 hr 24 min 51 sec)
Heartbeat CPU 0 instructions: 880000002 cycles: 220102753 heartbeat IPC: 3.999 cumulative IPC: 3.998 (Simulation time: 00 hr 25 min 08 sec)
Heartbeat CPU 0 instructions: 890000002 cycles: 222602753 heartbeat IPC: 4 cumulative IPC: 3.998 (Simulation time: 00 hr 25 min 25 sec)
Heartbeat CPU 0 instructions: 900000003 cycles: 225103000 heartbeat IPC: 4 cumulative IPC: 3.998 (Simulation time: 00 hr 25 min 42 sec)
Heartbeat CPU 0 instructions: 910000000 cycles: 227603391 heartbeat IPC: 3.999 cumulative IPC: 3.998 (Simulation time: 00 hr 25 min 59 sec)
Heartbeat CPU 0 instructions: 920000002 cycles: 230103780 heartbeat IPC: 3.999 cumulative IPC: 3.998 (Simulation time: 00 hr 26 min 16 sec)
Heartbeat CPU 0 instructions: 930000000 cycles: 232604030 heartbeat IPC: 4 cumulative IPC: 3.998 (Simulation time: 00 hr 26 min 33 sec)
Heartbeat CPU 0 instructions: 940000000 cycles: 235104030 heartbeat IPC: 4 cumulative IPC: 3.998 (Simulation time: 00 hr 26 min 50 sec)
Heartbeat CPU 0 instructions: 950000000 cycles: 237604374 heartbeat IPC: 3.999 cumulative IPC: 3.998 (Simulation time: 00 hr 27 min 07 sec)
Heartbeat CPU 0 instructions: 960000003 cycles: 240105134 heartbeat IPC: 3.999 cumulative IPC: 3.998 (Simulation time: 00 hr 27 min 24 sec)
Heartbeat CPU 0 instructions: 970000000 cycles: 242605179 heartbeat IPC: 4 cumulative IPC: 3.998 (Simulation time: 00 hr 27 min 41 sec)
Heartbeat CPU 0 instructions: 980000002 cycles: 245105184 heartbeat IPC: 4 cumulative IPC: 3.998 (Simulation time: 00 hr 27 min 58 sec)
Heartbeat CPU 0 instructions: 990000003 cycles: 247606704 heartbeat IPC: 3.998 cumulative IPC: 3.998 (Simulation time: 00 hr 28 min 15 sec)
Heartbeat CPU 0 instructions: 1000000003 cycles: 250106704 heartbeat IPC: 4 cumulative IPC: 3.998 (Simulation time: 00 hr 28 min 32 sec)
Warmup finished CPU 0 instructions: 1000000003 cycles: 250106705 cumulative IPC: 3.998 (Simulation time: 00 hr 28 min 32 sec)
Warmup complete CPU 0 instructions: 1000000003 cycles: 250106705 cumulative IPC: 3.998 (Simulation time: 00 hr 28 min 32 sec)
Heartbeat CPU 0 instructions: 1010000001 cycles: 253057252 heartbeat IPC: 3.389 cumulative IPC: 3.389 (Simulation time: 00 hr 28 min 52 sec)
Heartbeat CPU 0 instructions: 1020000003 cycles: 255960736 heartbeat IPC: 3.444 cumulative IPC: 3.416 (Simulation time: 00 hr 29 min 13 sec)
Heartbeat CPU 0 instructions: 1030000000 cycles: 258802022 heartbeat IPC: 3.52 cumulative IPC: 3.45 (Simulation time: 00 hr 29 min 33 sec)
Heartbeat CPU 0 instructions: 1040000000 cycles: 261698019 heartbeat IPC: 3.453 cumulative IPC: 3.451 (Simulation time: 00 hr 29 min 53 sec)
Heartbeat CPU 0 instructions: 1050000000 cycles: 264582523 heartbeat IPC: 3.467 cumulative IPC: 3.454 (Simulation time: 00 hr 30 min 13 sec)
Heartbeat CPU 0 instructions: 1060000001 cycles: 267540577 heartbeat IPC: 3.381 cumulative IPC: 3.442 (Simulation time: 00 hr 30 min 34 sec)
Heartbeat CPU 0 instructions: 1070000000 cycles: 270589043 heartbeat IPC: 3.28 cumulative IPC: 3.418 (Simulation time: 00 hr 30 min 54 sec)
Heartbeat CPU 0 instructions: 1080000003 cycles: 273514034 heartbeat IPC: 3.419 cumulative IPC: 3.418 (Simulation time: 00 hr 31 min 15 sec)
Heartbeat CPU 0 instructions: 1090000000 cycles: 276436663 heartbeat IPC: 3.422 cumulative IPC: 3.418 (Simulation time: 00 hr 31 min 35 sec)
Heartbeat CPU 0 instructions: 1100000000 cycles: 279226225 heartbeat IPC: 3.585 cumulative IPC: 3.434 (Simulation time: 00 hr 31 min 56 sec)
Heartbeat CPU 0 instructions: 1110000004 cycles: 282182013 heartbeat IPC: 3.383 cumulative IPC: 3.429 (Simulation time: 00 hr 32 min 16 sec)
Heartbeat CPU 0 instructions: 1120000000 cycles: 285057320 heartbeat IPC: 3.478 cumulative IPC: 3.433 (Simulation time: 00 hr 32 min 36 sec)
Heartbeat CPU 0 instructions: 1130000002 cycles: 287705972 heartbeat IPC: 3.776 cumulative IPC: 3.458 (Simulation time: 00 hr 32 min 56 sec)
Heartbeat CPU 0 instructions: 1140000002 cycles: 290752676 heartbeat IPC: 3.282 cumulative IPC: 3.444 (Simulation time: 00 hr 33 min 17 sec)
Heartbeat CPU 0 instructions: 1150000000 cycles: 293685591 heartbeat IPC: 3.41 cumulative IPC: 3.442 (Simulation time: 00 hr 33 min 37 sec)
Heartbeat CPU 0 instructions: 1160000000 cycles: 296584454 heartbeat IPC: 3.45 cumulative IPC: 3.443 (Simulation time: 00 hr 33 min 57 sec)
Heartbeat CPU 0 instructions: 1170000004 cycles: 299364689 heartbeat IPC: 3.597 cumulative IPC: 3.451 (Simulation time: 00 hr 34 min 17 sec)
Heartbeat CPU 0 instructions: 1180000004 cycles: 302214267 heartbeat IPC: 3.509 cumulative IPC: 3.454 (Simulation time: 00 hr 34 min 37 sec)
Heartbeat CPU 0 instructions: 1190000004 cycles: 305191125 heartbeat IPC: 3.359 cumulative IPC: 3.449 (Simulation time: 00 hr 34 min 58 sec)
Heartbeat CPU 0 instructions: 1200000000 cycles: 307917088 heartbeat IPC: 3.668 cumulative IPC: 3.46 (Simulation time: 00 hr 35 min 18 sec)
Heartbeat CPU 0 instructions: 1210000003 cycles: 310824264 heartbeat IPC: 3.44 cumulative IPC: 3.459 (Simulation time: 00 hr 35 min 39 sec)
Heartbeat CPU 0 instructions: 1220000002 cycles: 315248339 heartbeat IPC: 2.26 cumulative IPC: 3.377 (Simulation time: 00 hr 36 min 03 sec)
Heartbeat CPU 0 instructions: 1230000003 cycles: 320350103 heartbeat IPC: 1.96 cumulative IPC: 3.274 (Simulation time: 00 hr 36 min 29 sec)
Heartbeat CPU 0 instructions: 1240000000 cycles: 327381374 heartbeat IPC: 1.422 cumulative IPC: 3.106 (Simulation time: 00 hr 37 min 01 sec)
Heartbeat CPU 0 instructions: 1250000002 cycles: 334515028 heartbeat IPC: 1.402 cumulative IPC: 2.962 (Simulation time: 00 hr 37 min 32 sec)
Heartbeat CPU 0 instructions: 1260000002 cycles: 337731741 heartbeat IPC: 3.109 cumulative IPC: 2.967 (Simulation time: 00 hr 37 min 54 sec)
Heartbeat CPU 0 instructions: 1270000002 cycles: 340738620 heartbeat IPC: 3.326 cumulative IPC: 2.979 (Simulation time: 00 hr 38 min 14 sec)
Heartbeat CPU 0 instructions: 1280000001 cycles: 343921370 heartbeat IPC: 3.142 cumulative IPC: 2.985 (Simulation time: 00 hr 38 min 36 sec)
Heartbeat CPU 0 instructions: 1290000002 cycles: 347065547 heartbeat IPC: 3.18 cumulative IPC: 2.991 (Simulation time: 00 hr 38 min 57 sec)
Heartbeat CPU 0 instructions: 1300000001 cycles: 350235820 heartbeat IPC: 3.154 cumulative IPC: 2.996 (Simulation time: 00 hr 39 min 18 sec)
Heartbeat CPU 0 instructions: 1310000000 cycles: 353495763 heartbeat IPC: 3.068 cumulative IPC: 2.998 (Simulation time: 00 hr 39 min 40 sec)
Heartbeat CPU 0 instructions: 1320000002 cycles: 361244356 heartbeat IPC: 1.291 cumulative IPC: 2.879 (Simulation time: 00 hr 40 min 13 sec)
Heartbeat CPU 0 instructions: 1330000002 cycles: 369395927 heartbeat IPC: 1.227 cumulative IPC: 2.766 (Simulation time: 00 hr 40 min 47 sec)
Heartbeat CPU 0 instructions: 1340000003 cycles: 375938846 heartbeat IPC: 1.528 cumulative IPC: 2.702 (Simulation time: 00 hr 41 min 18 sec)
Heartbeat CPU 0 instructions: 1350000001 cycles: 379241754 heartbeat IPC: 3.028 cumulative IPC: 2.71 (Simulation time: 00 hr 41 min 39 sec)
Heartbeat CPU 0 instructions: 1360000001 cycles: 382612934 heartbeat IPC: 2.966 cumulative IPC: 2.717 (Simulation time: 00 hr 42 min 01 sec)
Heartbeat CPU 0 instructions: 1370000002 cycles: 385989288 heartbeat IPC: 2.962 cumulative IPC: 2.723 (Simulation time: 00 hr 42 min 22 sec)
Heartbeat CPU 0 instructions: 1380000000 cycles: 393711534 heartbeat IPC: 1.295 cumulative IPC: 2.646 (Simulation time: 00 hr 42 min 53 sec)
Heartbeat CPU 0 instructions: 1390000003 cycles: 402036002 heartbeat IPC: 1.201 cumulative IPC: 2.567 (Simulation time: 00 hr 43 min 27 sec)
Heartbeat CPU 0 instructions: 1400000001 cycles: 407563592 heartbeat IPC: 1.809 cumulative IPC: 2.54 (Simulation time: 00 hr 43 min 53 sec)
Heartbeat CPU 0 instructions: 1410000003 cycles: 410563336 heartbeat IPC: 3.334 cumulative IPC: 2.555 (Simulation time: 00 hr 44 min 12 sec)
Heartbeat CPU 0 instructions: 1420000002 cycles: 413564322 heartbeat IPC: 3.332 cumulative IPC: 2.569 (Simulation time: 00 hr 44 min 32 sec)
Heartbeat CPU 0 instructions: 1430000000 cycles: 416476583 heartbeat IPC: 3.434 cumulative IPC: 2.585 (Simulation time: 00 hr 44 min 51 sec)
Heartbeat CPU 0 instructions: 1440000004 cycles: 419381261 heartbeat IPC: 3.443 cumulative IPC: 2.599 (Simulation time: 00 hr 45 min 11 sec)
Heartbeat CPU 0 instructions: 1450000001 cycles: 422303072 heartbeat IPC: 3.423 cumulative IPC: 2.613 (Simulation time: 00 hr 45 min 30 sec)
Heartbeat CPU 0 instructions: 1460000000 cycles: 425281719 heartbeat IPC: 3.357 cumulative IPC: 2.626 (Simulation time: 00 hr 45 min 50 sec)
Heartbeat CPU 0 instructions: 1470000001 cycles: 428279352 heartbeat IPC: 3.336 cumulative IPC: 2.638 (Simulation time: 00 hr 46 min 09 sec)
Heartbeat CPU 0 instructions: 1480000002 cycles: 431270833 heartbeat IPC: 3.343 cumulative IPC: 2.65 (Simulation time: 00 hr 46 min 29 sec)
Heartbeat CPU 0 instructions: 1490000002 cycles: 434195824 heartbeat IPC: 3.419 cumulative IPC: 2.662 (Simulation time: 00 hr 46 min 49 sec)
Heartbeat CPU 0 instructions: 1500000001 cycles: 437256550 heartbeat IPC: 3.267 cumulative IPC: 2.672 (Simulation time: 00 hr 47 min 08 sec)
Simulation finished CPU 0 instructions: 500000003 cycles: 187149847 cumulative IPC: 2.672 (Simulation time: 00 hr 47 min 08 sec)
Simulation complete CPU 0 instructions: 500000003 cycles: 187149847 cumulative IPC: 2.672 (Simulation time: 00 hr 47 min 08 sec)

ChampSim completed all CPUs

=== Simulation ===
CPU 0 runs traces/600.perlbench_s-210B.champsimtrace.xz
Region of Interest Statistics

CPU 0 cumulative IPC: 2.672 instructions: 500000003 cycles: 187149847
CPU 0 Branch Prediction Accuracy: 97.33% MPKI: 4.014 Average ROB Occupancy at Mispredict: 61.51
Branch type MPKI
BRANCH_DIRECT_JUMP: 0.0578
BRANCH_INDIRECT: 0.296
BRANCH_CONDITIONAL: 3.48
BRANCH_DIRECT_CALL: 0.0136
BRANCH_INDIRECT_CALL: 0.154
BRANCH_RETURN: 0.0117

LLC TOTAL        ACCESS:     353883 HIT:     106494 MISS:     247389
LLC LOAD         ACCESS:     284822 HIT:      63094 MISS:     221728
LLC RFO          ACCESS:      16437 HIT:       4990 MISS:      11447
LLC PREFETCH     ACCESS:          0 HIT:          0 MISS:          0
LLC WRITE        ACCESS:      35405 HIT:      35264 MISS:        141
LLC TRANSLATION  ACCESS:      17219 HIT:       3146 MISS:      14073
LLC PREFETCH REQUESTED:          0 ISSUED:          0 USEFUL:          0 USELESS:          0
LLC AVERAGE MISS LATENCY: 188.3 cycles
cpu0_DTLB TOTAL        ACCESS:  116712183 HIT:  115909028 MISS:     803155
cpu0_DTLB LOAD         ACCESS:  116712183 HIT:  115909028 MISS:     803155
cpu0_DTLB RFO          ACCESS:          0 HIT:          0 MISS:          0
cpu0_DTLB PREFETCH     ACCESS:          0 HIT:          0 MISS:          0
cpu0_DTLB WRITE        ACCESS:          0 HIT:          0 MISS:          0
cpu0_DTLB TRANSLATION  ACCESS:          0 HIT:          0 MISS:          0
cpu0_DTLB PREFETCH REQUESTED:          0 ISSUED:          0 USEFUL:          0 USELESS:          0
cpu0_DTLB AVERAGE MISS LATENCY: 9.037 cycles
cpu0_ITLB TOTAL        ACCESS:    6549639 HIT:    6385623 MISS:     164016
cpu0_ITLB LOAD         ACCESS:    6549639 HIT:    6385623 MISS:     164016
cpu0_ITLB RFO          ACCESS:          0 HIT:          0 MISS:          0
cpu0_ITLB PREFETCH     ACCESS:          0 HIT:          0 MISS:          0
cpu0_ITLB WRITE        ACCESS:          0 HIT:          0 MISS:          0
cpu0_ITLB TRANSLATION  ACCESS:          0 HIT:          0 MISS:          0
cpu0_ITLB PREFETCH REQUESTED:          0 ISSUED:          0 USEFUL:          0 USELESS:          0
cpu0_ITLB AVERAGE MISS LATENCY: 2.549 cycles
cpu0_L1D TOTAL        ACCESS:  167014416 HIT:  165915434 MISS:    1098982
cpu0_L1D LOAD         ACCESS:   64330900 HIT:   63411605 MISS:     919295
cpu0_L1D RFO          ACCESS:          0 HIT:          0 MISS:          0
cpu0_L1D PREFETCH     ACCESS:          0 HIT:          0 MISS:          0
cpu0_L1D WRITE        ACCESS:  102656720 HIT:  102501570 MISS:     155150
cpu0_L1D TRANSLATION  ACCESS:      26796 HIT:       2259 MISS:      24537
cpu0_L1D PREFETCH REQUESTED:          0 ISSUED:          0 USEFUL:          0 USELESS:          0
cpu0_L1D AVERAGE MISS LATENCY: 48.37 cycles
cpu0_L1I TOTAL        ACCESS:    7306547 HIT:    6209041 MISS:    1097506
cpu0_L1I LOAD         ACCESS:    7306547 HIT:    6209041 MISS:    1097506
cpu0_L1I RFO          ACCESS:          0 HIT:          0 MISS:          0
cpu0_L1I PREFETCH     ACCESS:          0 HIT:          0 MISS:          0
cpu0_L1I WRITE        ACCESS:          0 HIT:          0 MISS:          0
cpu0_L1I TRANSLATION  ACCESS:          0 HIT:          0 MISS:          0
cpu0_L1I PREFETCH REQUESTED:          0 ISSUED:          0 USEFUL:          0 USELESS:          0
cpu0_L1I AVERAGE MISS LATENCY: 9.793 cycles
cpu0_L2C TOTAL        ACCESS:    1562444 HIT:    1243647 MISS:     318797
cpu0_L2C LOAD         ACCESS:    1387598 HIT:    1102776 MISS:     284822
cpu0_L2C RFO          ACCESS:      48578 HIT:      32141 MISS:      16437
cpu0_L2C PREFETCH     ACCESS:          0 HIT:          0 MISS:          0
cpu0_L2C WRITE        ACCESS:     101785 HIT:     101466 MISS:        319
cpu0_L2C TRANSLATION  ACCESS:      24483 HIT:       7264 MISS:      17219
cpu0_L2C PREFETCH REQUESTED:          0 ISSUED:          0 USEFUL:          0 USELESS:          0
cpu0_L2C AVERAGE MISS LATENCY: 166.9 cycles
cpu0_STLB TOTAL        ACCESS:     626544 HIT:     603054 MISS:      23490
cpu0_STLB LOAD         ACCESS:     626544 HIT:     603054 MISS:      23490
cpu0_STLB RFO          ACCESS:          0 HIT:          0 MISS:          0
cpu0_STLB PREFETCH     ACCESS:          0 HIT:          0 MISS:          0
cpu0_STLB WRITE        ACCESS:          0 HIT:          0 MISS:          0
cpu0_STLB TRANSLATION  ACCESS:          0 HIT:          0 MISS:          0
cpu0_STLB PREFETCH REQUESTED:          0 ISSUED:          0 USEFUL:          0 USELESS:          0
cpu0_STLB AVERAGE MISS LATENCY: 158 cycles

DRAM Statistics

Channel 0 RQ ROW_BUFFER_HIT:      58895
  ROW_BUFFER_MISS:     188352
 AVG DBUS CONGESTED CYCLE: 3.787
WQ ROW_BUFFER_HIT: Channel 0 
  ROW_BUFFER_MISS:      12060
  FULL:      13054
