WARNING: physical memory size is smaller than virtual memory size.

*** ChampSim Multicore Out-of-Order Simulator ***
Warmup Instructions: 1000000000
Simulation Instructions: 500000000
Number of CPUs: 1
Page size: 4096

Off-chip DRAM Size: 4 GiB Channels: 1 Width: 64-bit Data Race: 3200 MT/s
Heartbeat CPU 0 instructions: 10000000 cycles: 2500066 heartbeat IPC: 4 cumulative IPC: 4 (Simulation time: 00 hr 00 min 29 sec)
Heartbeat CPU 0 instructions: 20000000 cycles: 5000066 heartbeat IPC: 4 cumulative IPC: 4 (Simulation time: 00 hr 01 min 02 sec)
Heartbeat CPU 0 instructions: 30000000 cycles: 7500066 heartbeat IPC: 4 cumulative IPC: 4 (Simulation time: 00 hr 01 min 39 sec)
Heartbeat CPU 0 instructions: 40000000 cycles: 10000066 heartbeat IPC: 4 cumulative IPC: 4 (Simulation time: 00 hr 02 min 17 sec)
Heartbeat CPU 0 instructions: 50000002 cycles: 12500111 heartbeat IPC: 4 cumulative IPC: 4 (Simulation time: 00 hr 02 min 54 sec)
Heartbeat CPU 0 instructions: 60000000 cycles: 15000215 heartbeat IPC: 4 cumulative IPC: 4 (Simulation time: 00 hr 03 min 32 sec)
Heartbeat CPU 0 instructions: 70000000 cycles: 17500215 heartbeat IPC: 4 cumulative IPC: 4 (Simulation time: 00 hr 04 min 10 sec)
Heartbeat CPU 0 instructions: 80000000 cycles: 20000215 heartbeat IPC: 4 cumulative IPC: 4 (Simulation time: 00 hr 04 min 47 sec)
Heartbeat CPU 0 instructions: 90000000 cycles: 22500215 heartbeat IPC: 4 cumulative IPC: 4 (Simulation time: 00 hr 05 min 25 sec)
Heartbeat CPU 0 instructions: 100000001 cycles: 25000524 heartbeat IPC: 4 cumulative IPC: 4 (Simulation time: 00 hr 06 min 03 sec)
Heartbeat CPU 0 instructions: 110000001 cycles: 27500524 heartbeat IPC: 4 cumulative IPC: 4 (Simulation time: 00 hr 06 min 40 sec)
Heartbeat CPU 0 instructions: 120000001 cycles: 30000524 heartbeat IPC: 4 cumulative IPC: 4 (Simulation time: 00 hr 07 min 18 sec)
Heartbeat CPU 0 instructions: 130000003 cycles: 32500570 heartbeat IPC: 4 cumulative IPC: 4 (Simulation time: 00 hr 07 min 55 sec)
Heartbeat CPU 0 instructions: 140000001 cycles: 35000616 heartbeat IPC: 4 cumulative IPC: 4 (Simulation time: 00 hr 08 min 33 sec)
Heartbeat CPU 0 instructions: 150000001 cycles: 37500616 heartbeat IPC: 4 cumulative IPC: 4 (Simulation time: 00 hr 09 min 11 sec)
Heartbeat CPU 0 instructions: 160000001 cycles: 40000616 heartbeat IPC: 4 cumulative IPC: 4 (Simulation time: 00 hr 09 min 49 sec)
Heartbeat CPU 0 instructions: 170000000 cycles: 42500944 heartbeat IPC: 3.999 cumulative IPC: 4 (Simulation time: 00 hr 10 min 27 sec)
Heartbeat CPU 0 instructions: 180000000 cycles: 45000944 heartbeat IPC: 4 cumulative IPC: 4 (Simulation time: 00 hr 11 min 05 sec)
Heartbeat CPU 0 instructions: 190000000 cycles: 47500944 heartbeat IPC: 4 cumulative IPC: 4 (Simulation time: 00 hr 11 min 42 sec)
Heartbeat CPU 0 instructions: 200000000 cycles: 50000974 heartbeat IPC: 4 cumulative IPC: 4 (Simulation time: 00 hr 12 min 20 sec)
Heartbeat CPU 0 instructions: 210000000 cycles: 52500974 heartbeat IPC: 4 cumulative IPC: 4 (Simulation time: 00 hr 12 min 56 sec)
Heartbeat CPU 0 instructions: 220000000 cycles: 55000974 heartbeat IPC: 4 cumulative IPC: 4 (Simulation time: 00 hr 13 min 20 sec)
Heartbeat CPU 0 instructions: 230000000 cycles: 57500974 heartbeat IPC: 4 cumulative IPC: 4 (Simulation time: 00 hr 13 min 47 sec)
Heartbeat CPU 0 instructions: 240000000 cycles: 60001130 heartbeat IPC: 4 cumulative IPC: 4 (Simulation time: 00 hr 14 min 08 sec)
Heartbeat CPU 0 instructions: 250000003 cycles: 62501306 heartbeat IPC: 4 cumulative IPC: 4 (Simulation time: 00 hr 14 min 29 sec)
Heartbeat CPU 0 instructions: 260000003 cycles: 65001306 heartbeat IPC: 4 cumulative IPC: 4 (Simulation time: 00 hr 14 min 50 sec)
Heartbeat CPU 0 instructions: 270000003 cycles: 67501306 heartbeat IPC: 4 cumulative IPC: 4 (Simulation time: 00 hr 15 min 12 sec)
Heartbeat CPU 0 instructions: 280000003 cycles: 70001306 heartbeat IPC: 4 cumulative IPC: 4 (Simulation time: 00 hr 15 min 33 sec)
Heartbeat CPU 0 instructions: 290000003 cycles: 72501446 heartbeat IPC: 4 cumulative IPC: 4 (Simulation time: 00 hr 15 min 54 sec)
Heartbeat CPU 0 instructions: 300000003 cycles: 75001446 heartbeat IPC: 4 cumulative IPC: 4 (Simulation time: 00 hr 16 min 15 sec)
Heartbeat CPU 0 instructions: 310000002 cycles: 77501640 heartbeat IPC: 4 cumulative IPC: 4 (Simulation time: 00 hr 16 min 36 sec)
Heartbeat CPU 0 instructions: 320000003 cycles: 80001887 heartbeat IPC: 4 cumulative IPC: 4 (Simulation time: 00 hr 16 min 57 sec)
Heartbeat CPU 0 instructions: 330000002 cycles: 82504518 heartbeat IPC: 3.996 cumulative IPC: 4 (Simulation time: 00 hr 17 min 19 sec)
Heartbeat CPU 0 instructions: 340000000 cycles: 85004637 heartbeat IPC: 4 cumulative IPC: 4 (Simulation time: 00 hr 17 min 40 sec)
Heartbeat CPU 0 instructions: 350000000 cycles: 87504637 heartbeat IPC: 4 cumulative IPC: 4 (Simulation time: 00 hr 18 min 01 sec)
Heartbeat CPU 0 instructions: 360000001 cycles: 90011918 heartbeat IPC: 3.988 cumulative IPC: 3.999 (Simulation time: 00 hr 18 min 21 sec)
Heartbeat CPU 0 instructions: 370000001 cycles: 92511918 heartbeat IPC: 4 cumulative IPC: 3.999 (Simulation time: 00 hr 18 min 42 sec)
Heartbeat CPU 0 instructions: 380000002 cycles: 95011931 heartbeat IPC: 4 cumulative IPC: 3.999 (Simulation time: 00 hr 19 min 02 sec)
Heartbeat CPU 0 instructions: 390000003 cycles: 97511945 heartbeat IPC: 4 cumulative IPC: 4 (Simulation time: 00 hr 19 min 23 sec)
Heartbeat CPU 0 instructions: 400000003 cycles: 100011945 heartbeat IPC: 4 cumulative IPC: 4 (Simulation time: 00 hr 19 min 44 sec)
Heartbeat CPU 0 instructions: 410000003 cycles: 102511945 heartbeat IPC: 4 cumulative IPC: 4 (Simulation time: 00 hr 20 min 05 sec)
Heartbeat CPU 0 instructions: 420000003 cycles: 105011997 heartbeat IPC: 4 cumulative IPC: 4 (Simulation time: 00 hr 20 min 25 sec)
Heartbeat CPU 0 instructions: 430000001 cycles: 107512037 heartbeat IPC: 4 cumulative IPC: 4 (Simulation time: 00 hr 20 min 46 sec)
Heartbeat CPU 0 instructions: 440000003 cycles: 110019362 heartbeat IPC: 3.988 cumulative IPC: 3.999 (Simulation time: 00 hr 21 min 06 sec)
Heartbeat CPU 0 instructions: 450000003 cycles: 112519362 heartbeat IPC: 4 cumulative IPC: 3.999 (Simulation time: 00 hr 21 min 27 sec)
Heartbeat CPU 0 instructions: 460000003 cycles: 115019362 heartbeat IPC: 4 cumulative IPC: 3.999 (Simulation time: 00 hr 21 min 48 sec)
Heartbeat CPU 0 instructions: 470000003 cycles: 117528328 heartbeat IPC: 3.986 cumulative IPC: 3.999 (Simulation time: 00 hr 22 min 09 sec)
Heartbeat CPU 0 instructions: 480000003 cycles: 120032208 heartbeat IPC: 3.994 cumulative IPC: 3.999 (Simulation time: 00 hr 22 min 30 sec)
Heartbeat CPU 0 instructions: 490000000 cycles: 122532468 heartbeat IPC: 4 cumulative IPC: 3.999 (Simulation time: 00 hr 22 min 52 sec)
Heartbeat CPU 0 instructions: 500000001 cycles: 125032616 heartbeat IPC: 4 cumulative IPC: 3.999 (Simulation time: 00 hr 23 min 13 sec)
Heartbeat CPU 0 instructions: 510000002 cycles: 127533064 heartbeat IPC: 3.999 cumulative IPC: 3.999 (Simulation time: 00 hr 23 min 34 sec)
Heartbeat CPU 0 instructions: 520000002 cycles: 130042313 heartbeat IPC: 3.985 cumulative IPC: 3.999 (Simulation time: 00 hr 23 min 57 sec)
Heartbeat CPU 0 instructions: 530000003 cycles: 132542682 heartbeat IPC: 3.999 cumulative IPC: 3.999 (Simulation time: 00 hr 24 min 20 sec)
Heartbeat CPU 0 instructions: 540000000 cycles: 135053193 heartbeat IPC: 3.983 cumulative IPC: 3.998 (Simulation time: 00 hr 24 min 42 sec)
Heartbeat CPU 0 instructions: 550000001 cycles: 137558173 heartbeat IPC: 3.992 cumulative IPC: 3.998 (Simulation time: 00 hr 25 min 04 sec)
Heartbeat CPU 0 instructions: 560000001 cycles: 140058173 heartbeat IPC: 4 cumulative IPC: 3.998 (Simulation time: 00 hr 25 min 24 sec)
Heartbeat CPU 0 instructions: 570000001 cycles: 142558173 heartbeat IPC: 4 cumulative IPC: 3.998 (Simulation time: 00 hr 25 min 45 sec)
Heartbeat CPU 0 instructions: 580000001 cycles: 145058173 heartbeat IPC: 4 cumulative IPC: 3.998 (Simulation time: 00 hr 26 min 06 sec)
Heartbeat CPU 0 instructions: 590000000 cycles: 147558969 heartbeat IPC: 3.999 cumulative IPC: 3.998 (Simulation time: 00 hr 26 min 27 sec)
Heartbeat CPU 0 instructions: 600000003 cycles: 150059725 heartbeat IPC: 3.999 cumulative IPC: 3.998 (Simulation time: 00 hr 26 min 49 sec)
Heartbeat CPU 0 instructions: 610000002 cycles: 152560807 heartbeat IPC: 3.998 cumulative IPC: 3.998 (Simulation time: 00 hr 27 min 12 sec)
Heartbeat CPU 0 instructions: 620000001 cycles: 155064466 heartbeat IPC: 3.994 cumulative IPC: 3.998 (Simulation time: 00 hr 27 min 34 sec)
Heartbeat CPU 0 instructions: 630000000 cycles: 157565879 heartbeat IPC: 3.998 cumulative IPC: 3.998 (Simulation time: 00 hr 27 min 55 sec)
Heartbeat CPU 0 instructions: 640000002 cycles: 160066026 heartbeat IPC: 4 cumulative IPC: 3.998 (Simulation time: 00 hr 28 min 17 sec)
Heartbeat CPU 0 instructions: 650000003 cycles: 162566410 heartbeat IPC: 3.999 cumulative IPC: 3.998 (Simulation time: 00 hr 28 min 39 sec)
Heartbeat CPU 0 instructions: 660000001 cycles: 165068889 heartbeat IPC: 3.996 cumulative IPC: 3.998 (Simulation time: 00 hr 29 min 02 sec)
Heartbeat CPU 0 instructions: 670000002 cycles: 167569004 heartbeat IPC: 4 cumulative IPC: 3.998 (Simulation time: 00 hr 29 min 23 sec)
Heartbeat CPU 0 instructions: 680000003 cycles: 170069189 heartbeat IPC: 4 cumulative IPC: 3.998 (Simulation time: 00 hr 29 min 45 sec)
Heartbeat CPU 0 instructions: 690000000 cycles: 172597306 heartbeat IPC: 3.956 cumulative IPC: 3.998 (Simulation time: 00 hr 30 min 07 sec)
Heartbeat CPU 0 instructions: 700000000 cycles: 175097306 heartbeat IPC: 4 cumulative IPC: 3.998 (Simulation time: 00 hr 30 min 28 sec)
Heartbeat CPU 0 instructions: 710000003 cycles: 177597511 heartbeat IPC: 4 cumulative IPC: 3.998 (Simulation time: 00 hr 30 min 49 sec)
Heartbeat CPU 0 instructions: 720000002 cycles: 180097685 heartbeat IPC: 4 cumulative IPC: 3.998 (Simulation time: 00 hr 31 min 10 sec)
Heartbeat CPU 0 instructions: 730000002 cycles: 182597685 heartbeat IPC: 4 cumulative IPC: 3.998 (Simulation time: 00 hr 31 min 31 sec)
Heartbeat CPU 0 instructions: 740000002 cycles: 185097685 heartbeat IPC: 4 cumulative IPC: 3.998 (Simulation time: 00 hr 31 min 52 sec)
Heartbeat CPU 0 instructions: 750000002 cycles: 187598131 heartbeat IPC: 3.999 cumulative IPC: 3.998 (Simulation time: 00 hr 32 min 13 sec)
Heartbeat CPU 0 instructions: 760000001 cycles: 190098527 heartbeat IPC: 3.999 cumulative IPC: 3.998 (Simulation time: 00 hr 32 min 33 sec)
Heartbeat CPU 0 instructions: 770000002 cycles: 192598654 heartbeat IPC: 4 cumulative IPC: 3.998 (Simulation time: 00 hr 32 min 55 sec)
Heartbeat CPU 0 instructions: 780000002 cycles: 195098654 heartbeat IPC: 4 cumulative IPC: 3.998 (Simulation time: 00 hr 33 min 17 sec)
Heartbeat CPU 0 instructions: 790000002 cycles: 197599023 heartbeat IPC: 3.999 cumulative IPC: 3.998 (Simulation time: 00 hr 33 min 38 sec)
Heartbeat CPU 0 instructions: 800000003 cycles: 200099331 heartbeat IPC: 4 cumulative IPC: 3.998 (Simulation time: 00 hr 34 min 00 sec)
Heartbeat CPU 0 instructions: 810000001 cycles: 202600079 heartbeat IPC: 3.999 cumulative IPC: 3.998 (Simulation time: 00 hr 34 min 22 sec)
Heartbeat CPU 0 instructions: 820000001 cycles: 205100079 heartbeat IPC: 4 cumulative IPC: 3.998 (Simulation time: 00 hr 34 min 43 sec)
Heartbeat CPU 0 instructions: 830000001 cycles: 207600079 heartbeat IPC: 4 cumulative IPC: 3.998 (Simulation time: 00 hr 35 min 04 sec)
Heartbeat CPU 0 instructions: 840000002 cycles: 210100257 heartbeat IPC: 4 cumulative IPC: 3.998 (Simulation time: 00 hr 35 min 25 sec)
Heartbeat CPU 0 instructions: 850000003 cycles: 212601735 heartbeat IPC: 3.998 cumulative IPC: 3.998 (Simulation time: 00 hr 35 min 47 sec)
Heartbeat CPU 0 instructions: 860000003 cycles: 215101735 heartbeat IPC: 4 cumulative IPC: 3.998 (Simulation time: 00 hr 36 min 08 sec)
Heartbeat CPU 0 instructions: 870000003 cycles: 217601735 heartbeat IPC: 4 cumulative IPC: 3.998 (Simulation time: 00 hr 36 min 30 sec)
Heartbeat CPU 0 instructions: 880000002 cycles: 220102588 heartbeat IPC: 3.999 cumulative IPC: 3.998 (Simulation time: 00 hr 36 min 51 sec)
Heartbeat CPU 0 instructions: 890000002 cycles: 222602588 heartbeat IPC: 4 cumulative IPC: 3.998 (Simulation time: 00 hr 37 min 12 sec)
Heartbeat CPU 0 instructions: 900000002 cycles: 225102836 heartbeat IPC: 4 cumulative IPC: 3.998 (Simulation time: 00 hr 37 min 34 sec)
Heartbeat CPU 0 instructions: 910000000 cycles: 227603231 heartbeat IPC: 3.999 cumulative IPC: 3.998 (Simulation time: 00 hr 37 min 55 sec)
Heartbeat CPU 0 instructions: 920000001 cycles: 230103624 heartbeat IPC: 3.999 cumulative IPC: 3.998 (Simulation time: 00 hr 38 min 16 sec)
Heartbeat CPU 0 instructions: 930000003 cycles: 232603878 heartbeat IPC: 4 cumulative IPC: 3.998 (Simulation time: 00 hr 38 min 38 sec)
Heartbeat CPU 0 instructions: 940000003 cycles: 235103878 heartbeat IPC: 4 cumulative IPC: 3.998 (Simulation time: 00 hr 39 min 00 sec)
Heartbeat CPU 0 instructions: 950000003 cycles: 237604225 heartbeat IPC: 3.999 cumulative IPC: 3.998 (Simulation time: 00 hr 39 min 21 sec)
Heartbeat CPU 0 instructions: 960000000 cycles: 240104996 heartbeat IPC: 3.999 cumulative IPC: 3.998 (Simulation time: 00 hr 39 min 42 sec)
Heartbeat CPU 0 instructions: 970000003 cycles: 242605047 heartbeat IPC: 4 cumulative IPC: 3.998 (Simulation time: 00 hr 40 min 03 sec)
Heartbeat CPU 0 instructions: 980000002 cycles: 245105051 heartbeat IPC: 4 cumulative IPC: 3.998 (Simulation time: 00 hr 40 min 25 sec)
Heartbeat CPU 0 instructions: 990000003 cycles: 247606577 heartbeat IPC: 3.998 cumulative IPC: 3.998 (Simulation time: 00 hr 40 min 46 sec)
Heartbeat CPU 0 instructions: 1000000003 cycles: 250106577 heartbeat IPC: 4 cumulative IPC: 3.998 (Simulation time: 00 hr 41 min 08 sec)
Warmup finished CPU 0 instructions: 1000000003 cycles: 250106578 cumulative IPC: 3.998 (Simulation time: 00 hr 41 min 08 sec)
Warmup complete CPU 0 instructions: 1000000003 cycles: 250106578 cumulative IPC: 3.998 (Simulation time: 00 hr 41 min 08 sec)
Heartbeat CPU 0 instructions: 1010000001 cycles: 253081221 heartbeat IPC: 3.362 cumulative IPC: 3.362 (Simulation time: 00 hr 41 min 34 sec)
Heartbeat CPU 0 instructions: 1020000003 cycles: 255977227 heartbeat IPC: 3.453 cumulative IPC: 3.407 (Simulation time: 00 hr 42 min 00 sec)
Heartbeat CPU 0 instructions: 1030000000 cycles: 258769607 heartbeat IPC: 3.581 cumulative IPC: 3.463 (Simulation time: 00 hr 42 min 25 sec)
Heartbeat CPU 0 instructions: 1040000000 cycles: 261613223 heartbeat IPC: 3.517 cumulative IPC: 3.476 (Simulation time: 00 hr 42 min 51 sec)
Heartbeat CPU 0 instructions: 1050000000 cycles: 264513972 heartbeat IPC: 3.447 cumulative IPC: 3.47 (Simulation time: 00 hr 43 min 16 sec)
Heartbeat CPU 0 instructions: 1060000001 cycles: 267482097 heartbeat IPC: 3.369 cumulative IPC: 3.453 (Simulation time: 00 hr 43 min 42 sec)
Heartbeat CPU 0 instructions: 1070000002 cycles: 270539096 heartbeat IPC: 3.271 cumulative IPC: 3.426 (Simulation time: 00 hr 44 min 08 sec)
Heartbeat CPU 0 instructions: 1080000003 cycles: 273541401 heartbeat IPC: 3.331 cumulative IPC: 3.414 (Simulation time: 00 hr 44 min 34 sec)
Heartbeat CPU 0 instructions: 1090000000 cycles: 276466137 heartbeat IPC: 3.419 cumulative IPC: 3.414 (Simulation time: 00 hr 45 min 00 sec)
Heartbeat CPU 0 instructions: 1100000000 cycles: 279234978 heartbeat IPC: 3.612 cumulative IPC: 3.433 (Simulation time: 00 hr 45 min 25 sec)
Heartbeat CPU 0 instructions: 1110000004 cycles: 282186214 heartbeat IPC: 3.388 cumulative IPC: 3.429 (Simulation time: 00 hr 45 min 51 sec)
Heartbeat CPU 0 instructions: 1120000000 cycles: 285078296 heartbeat IPC: 3.458 cumulative IPC: 3.431 (Simulation time: 00 hr 46 min 16 sec)
Heartbeat CPU 0 instructions: 1130000002 cycles: 287719486 heartbeat IPC: 3.786 cumulative IPC: 3.456 (Simulation time: 00 hr 46 min 41 sec)
Heartbeat CPU 0 instructions: 1140000001 cycles: 290773870 heartbeat IPC: 3.274 cumulative IPC: 3.443 (Simulation time: 00 hr 47 min 07 sec)
Heartbeat CPU 0 instructions: 1150000001 cycles: 293709172 heartbeat IPC: 3.407 cumulative IPC: 3.44 (Simulation time: 00 hr 47 min 33 sec)
Heartbeat CPU 0 instructions: 1160000000 cycles: 296613501 heartbeat IPC: 3.443 cumulative IPC: 3.44 (Simulation time: 00 hr 47 min 59 sec)
Heartbeat CPU 0 instructions: 1170000004 cycles: 299409433 heartbeat IPC: 3.577 cumulative IPC: 3.448 (Simulation time: 00 hr 48 min 24 sec)
Heartbeat CPU 0 instructions: 1180000004 cycles: 302237291 heartbeat IPC: 3.536 cumulative IPC: 3.453 (Simulation time: 00 hr 48 min 49 sec)
Heartbeat CPU 0 instructions: 1190000004 cycles: 305200278 heartbeat IPC: 3.375 cumulative IPC: 3.449 (Simulation time: 00 hr 49 min 15 sec)
Heartbeat CPU 0 instructions: 1200000000 cycles: 307955146 heartbeat IPC: 3.63 cumulative IPC: 3.457 (Simulation time: 00 hr 49 min 40 sec)
Heartbeat CPU 0 instructions: 1210000003 cycles: 310870066 heartbeat IPC: 3.431 cumulative IPC: 3.456 (Simulation time: 00 hr 50 min 06 sec)
Heartbeat CPU 0 instructions: 1220000001 cycles: 314960317 heartbeat IPC: 2.445 cumulative IPC: 3.392 (Simulation time: 00 hr 50 min 36 sec)
Heartbeat CPU 0 instructions: 1230000001 cycles: 319550899 heartbeat IPC: 2.178 cumulative IPC: 3.312 (Simulation time: 00 hr 51 min 08 sec)
Heartbeat CPU 0 instructions: 1240000000 cycles: 325704735 heartbeat IPC: 1.625 cumulative IPC: 3.175 (Simulation time: 00 hr 51 min 46 sec)
Heartbeat CPU 0 instructions: 1250000002 cycles: 332085549 heartbeat IPC: 1.567 cumulative IPC: 3.05 (Simulation time: 00 hr 52 min 25 sec)
Heartbeat CPU 0 instructions: 1260000002 cycles: 335249599 heartbeat IPC: 3.161 cumulative IPC: 3.054 (Simulation time: 00 hr 52 min 51 sec)
Heartbeat CPU 0 instructions: 1270000003 cycles: 338244696 heartbeat IPC: 3.339 cumulative IPC: 3.063 (Simulation time: 00 hr 53 min 17 sec)
Heartbeat CPU 0 instructions: 1280000001 cycles: 341383805 heartbeat IPC: 3.186 cumulative IPC: 3.068 (Simulation time: 00 hr 53 min 44 sec)
Heartbeat CPU 0 instructions: 1290000002 cycles: 344523726 heartbeat IPC: 3.185 cumulative IPC: 3.071 (Simulation time: 00 hr 54 min 11 sec)
Heartbeat CPU 0 instructions: 1300000001 cycles: 347685940 heartbeat IPC: 3.162 cumulative IPC: 3.074 (Simulation time: 00 hr 54 min 38 sec)
Heartbeat CPU 0 instructions: 1310000000 cycles: 350911229 heartbeat IPC: 3.1 cumulative IPC: 3.075 (Simulation time: 00 hr 55 min 05 sec)
Heartbeat CPU 0 instructions: 1320000002 cycles: 357246033 heartbeat IPC: 1.579 cumulative IPC: 2.987 (Simulation time: 00 hr 55 min 44 sec)
Heartbeat CPU 0 instructions: 1330000002 cycles: 364116606 heartbeat IPC: 1.455 cumulative IPC: 2.894 (Simulation time: 00 hr 56 min 24 sec)
Heartbeat CPU 0 instructions: 1340000002 cycles: 369921682 heartbeat IPC: 1.723 cumulative IPC: 2.838 (Simulation time: 00 hr 57 min 01 sec)
Heartbeat CPU 0 instructions: 1350000001 cycles: 373190887 heartbeat IPC: 3.059 cumulative IPC: 2.844 (Simulation time: 00 hr 57 min 28 sec)
Heartbeat CPU 0 instructions: 1360000001 cycles: 376465842 heartbeat IPC: 3.053 cumulative IPC: 2.849 (Simulation time: 00 hr 57 min 55 sec)
Heartbeat CPU 0 instructions: 1370000002 cycles: 379777667 heartbeat IPC: 3.019 cumulative IPC: 2.853 (Simulation time: 00 hr 58 min 23 sec)
Heartbeat CPU 0 instructions: 1380000000 cycles: 386133032 heartbeat IPC: 1.573 cumulative IPC: 2.794 (Simulation time: 00 hr 59 min 03 sec)
Heartbeat CPU 0 instructions: 1390000003 cycles: 393017314 heartbeat IPC: 1.453 cumulative IPC: 2.729 (Simulation time: 00 hr 59 min 42 sec)
Heartbeat CPU 0 instructions: 1400000001 cycles: 398082709 heartbeat IPC: 1.974 cumulative IPC: 2.703 (Simulation time: 01 hr 00 min 15 sec)
Heartbeat CPU 0 instructions: 1410000003 cycles: 401174572 heartbeat IPC: 3.234 cumulative IPC: 2.714 (Simulation time: 01 hr 00 min 41 sec)
Heartbeat CPU 0 instructions: 1420000002 cycles: 404147780 heartbeat IPC: 3.363 cumulative IPC: 2.727 (Simulation time: 01 hr 01 min 06 sec)
Heartbeat CPU 0 instructions: 1430000001 cycles: 407096685 heartbeat IPC: 3.391 cumulative IPC: 2.739 (Simulation time: 01 hr 01 min 31 sec)
Heartbeat CPU 0 instructions: 1440000003 cycles: 410031969 heartbeat IPC: 3.407 cumulative IPC: 2.751 (Simulation time: 01 hr 01 min 56 sec)
Heartbeat CPU 0 instructions: 1450000000 cycles: 412924615 heartbeat IPC: 3.457 cumulative IPC: 2.764 (Simulation time: 01 hr 02 min 21 sec)
Heartbeat CPU 0 instructions: 1460000000 cycles: 415846193 heartbeat IPC: 3.423 cumulative IPC: 2.775 (Simulation time: 01 hr 02 min 46 sec)
Heartbeat CPU 0 instructions: 1470000001 cycles: 418826075 heartbeat IPC: 3.356 cumulative IPC: 2.786 (Simulation time: 01 hr 03 min 11 sec)
Heartbeat CPU 0 instructions: 1480000002 cycles: 421798962 heartbeat IPC: 3.364 cumulative IPC: 2.796 (Simulation time: 01 hr 03 min 36 sec)
Heartbeat CPU 0 instructions: 1490000002 cycles: 424703184 heartbeat IPC: 3.443 cumulative IPC: 2.806 (Simulation time: 01 hr 04 min 01 sec)
Heartbeat CPU 0 instructions: 1500000003 cycles: 427768326 heartbeat IPC: 3.262 cumulative IPC: 2.814 (Simulation time: 01 hr 04 min 27 sec)
Simulation finished CPU 0 instructions: 500000000 cycles: 177661749 cumulative IPC: 2.814 (Simulation time: 01 hr 04 min 27 sec)
Simulation complete CPU 0 instructions: 500000000 cycles: 177661749 cumulative IPC: 2.814 (Simulation time: 01 hr 04 min 27 sec)

ChampSim completed all CPUs

=== Simulation ===
CPU 0 runs traces/600.perlbench_s-210B.champsimtrace.xz
Region of Interest Statistics

CPU 0 cumulative IPC: 2.814 instructions: 500000000 cycles: 177661749
CPU 0 Branch Prediction Accuracy: 97.86% MPKI: 3.219 Average ROB Occupancy at Mispredict: 76.09
Branch type MPKI
BRANCH_DIRECT_JUMP: 0.0578
BRANCH_INDIRECT: 0.296
BRANCH_CONDITIONAL: 2.69
BRANCH_DIRECT_CALL: 0.0136
BRANCH_INDIRECT_CALL: 0.154
BRANCH_RETURN: 0.0117

LLC TOTAL        ACCESS:     354101 HIT:     106661 MISS:     247440
LLC LOAD         ACCESS:     284764 HIT:      62946 MISS:     221818
LLC RFO          ACCESS:      16294 HIT:       4858 MISS:      11436
LLC PREFETCH     ACCESS:          0 HIT:          0 MISS:          0
LLC WRITE        ACCESS:      35853 HIT:      35710 MISS:        143
LLC TRANSLATION  ACCESS:      17190 HIT:       3147 MISS:      14043
LLC PREFETCH REQUESTED:          0 ISSUED:          0 USEFUL:          0 USELESS:          0
LLC AVERAGE MISS LATENCY: 197.6 cycles
cpu0_DTLB TOTAL        ACCESS:  116198037 HIT:  115376706 MISS:     821331
cpu0_DTLB LOAD         ACCESS:  116198037 HIT:  115376706 MISS:     821331
cpu0_DTLB RFO          ACCESS:          0 HIT:          0 MISS:          0
cpu0_DTLB PREFETCH     ACCESS:          0 HIT:          0 MISS:          0
cpu0_DTLB WRITE        ACCESS:          0 HIT:          0 MISS:          0
cpu0_DTLB TRANSLATION  ACCESS:          0 HIT:          0 MISS:          0
cpu0_DTLB PREFETCH REQUESTED:          0 ISSUED:          0 USEFUL:          0 USELESS:          0
cpu0_DTLB AVERAGE MISS LATENCY: 9.005 cycles
cpu0_ITLB TOTAL        ACCESS:    6528911 HIT:    6347727 MISS:     181184
cpu0_ITLB LOAD         ACCESS:    6528911 HIT:    6347727 MISS:     181184
cpu0_ITLB RFO          ACCESS:          0 HIT:          0 MISS:          0
cpu0_ITLB PREFETCH     ACCESS:          0 HIT:          0 MISS:          0
cpu0_ITLB WRITE        ACCESS:          0 HIT:          0 MISS:          0
cpu0_ITLB TRANSLATION  ACCESS:          0 HIT:          0 MISS:          0
cpu0_ITLB PREFETCH REQUESTED:          0 ISSUED:          0 USEFUL:          0 USELESS:          0
cpu0_ITLB AVERAGE MISS LATENCY: 2.155 cycles
cpu0_L1D TOTAL        ACCESS:  166408773 HIT:  165266243 MISS:    1142530
cpu0_L1D LOAD         ACCESS:   63714203 HIT:   62756264 MISS:     957939
cpu0_L1D RFO          ACCESS:          0 HIT:          0 MISS:          0
cpu0_L1D PREFETCH     ACCESS:          0 HIT:          0 MISS:          0
cpu0_L1D WRITE        ACCESS:  102667746 HIT:  102507728 MISS:     160018
cpu0_L1D TRANSLATION  ACCESS:      26824 HIT:       2251 MISS:      24573
cpu0_L1D PREFETCH REQUESTED:          0 ISSUED:          0 USEFUL:          0 USELESS:          0
cpu0_L1D AVERAGE MISS LATENCY: 48.09 cycles
cpu0_L1I TOTAL        ACCESS:    7299802 HIT:    6159675 MISS:    1140127
cpu0_L1I LOAD         ACCESS:    7299802 HIT:    6159675 MISS:    1140127
cpu0_L1I RFO          ACCESS:          0 HIT:          0 MISS:          0
cpu0_L1I PREFETCH     ACCESS:          0 HIT:          0 MISS:          0
cpu0_L1I WRITE        ACCESS:          0 HIT:          0 MISS:          0
cpu0_L1I TRANSLATION  ACCESS:          0 HIT:          0 MISS:          0
cpu0_L1I PREFETCH REQUESTED:          0 ISSUED:          0 USEFUL:          0 USELESS:          0
cpu0_L1I AVERAGE MISS LATENCY: 9.388 cycles
cpu0_L2C TOTAL        ACCESS:    1563784 HIT:    1245210 MISS:     318574
cpu0_L2C LOAD         ACCESS:    1387160 HIT:    1102396 MISS:     284764
cpu0_L2C RFO          ACCESS:      48547 HIT:      32253 MISS:      16294
cpu0_L2C PREFETCH     ACCESS:          0 HIT:          0 MISS:          0
cpu0_L2C WRITE        ACCESS:     103577 HIT:     103251 MISS:        326
cpu0_L2C TRANSLATION  ACCESS:      24500 HIT:       7310 MISS:      17190
cpu0_L2C PREFETCH REQUESTED:          0 ISSUED:          0 USEFUL:          0 USELESS:          0
cpu0_L2C AVERAGE MISS LATENCY: 174.3 cycles
cpu0_STLB TOTAL        ACCESS:     626331 HIT:     602840 MISS:      23491
cpu0_STLB LOAD         ACCESS:     626331 HIT:     602840 MISS:      23491
cpu0_STLB RFO          ACCESS:          0 HIT:          0 MISS:          0
cpu0_STLB PREFETCH     ACCESS:          0 HIT:          0 MISS:          0
cpu0_STLB WRITE        ACCESS:          0 HIT:          0 MISS:          0
cpu0_STLB TRANSLATION  ACCESS:          0 HIT:          0 MISS:          0
cpu0_STLB PREFETCH REQUESTED:          0 ISSUED:          0 USEFUL:          0 USELESS:          0
cpu0_STLB AVERAGE MISS LATENCY: 169.6 cycles

DRAM Statistics

Channel 0 RQ ROW_BUFFER_HIT:      57957
  ROW_BUFFER_MISS:     189333
 AVG DBUS CONGESTED CYCLE: 3.802
WQ ROW_BUFFER_HIT: Channel 0 
  ROW_BUFFER_MISS:      11614
  FULL:      13818
