WARNING: physical memory size is smaller than virtual memory size.

*** ChampSim Multicore Out-of-Order Simulator ***
Warmup Instructions: 1000000000
Simulation Instructions: 500000000
Number of CPUs: 1
Page size: 4096

Off-chip DRAM Size: 4 GiB Channels: 1 Width: 64-bit Data Race: 3200 MT/s
Heartbeat CPU 0 instructions: 10000000 cycles: 2500066 heartbeat IPC: 4 cumulative IPC: 4 (Simulation time: 00 hr 00 min 32 sec)
Heartbeat CPU 0 instructions: 20000000 cycles: 5000066 heartbeat IPC: 4 cumulative IPC: 4 (Simulation time: 00 hr 01 min 10 sec)
Heartbeat CPU 0 instructions: 30000000 cycles: 7500066 heartbeat IPC: 4 cumulative IPC: 4 (Simulation time: 00 hr 01 min 48 sec)
Heartbeat CPU 0 instructions: 40000000 cycles: 10000066 heartbeat IPC: 4 cumulative IPC: 4 (Simulation time: 00 hr 02 min 26 sec)
Heartbeat CPU 0 instructions: 50000002 cycles: 12500110 heartbeat IPC: 4 cumulative IPC: 4 (Simulation time: 00 hr 03 min 03 sec)
Heartbeat CPU 0 instructions: 60000000 cycles: 15000214 heartbeat IPC: 4 cumulative IPC: 4 (Simulation time: 00 hr 03 min 41 sec)
Heartbeat CPU 0 instructions: 70000000 cycles: 17500214 heartbeat IPC: 4 cumulative IPC: 4 (Simulation time: 00 hr 04 min 19 sec)
Heartbeat CPU 0 instructions: 80000000 cycles: 20000214 heartbeat IPC: 4 cumulative IPC: 4 (Simulation time: 00 hr 04 min 57 sec)
Heartbeat CPU 0 instructions: 90000000 cycles: 22500214 heartbeat IPC: 4 cumulative IPC: 4 (Simulation time: 00 hr 05 min 27 sec)
Heartbeat CPU 0 instructions: 100000001 cycles: 25000526 heartbeat IPC: 4 cumulative IPC: 4 (Simulation time: 00 hr 05 min 47 sec)
Heartbeat CPU 0 instructions: 110000001 cycles: 27500526 heartbeat IPC: 4 cumulative IPC: 4 (Simulation time: 00 hr 06 min 08 sec)
Heartbeat CPU 0 instructions: 120000001 cycles: 30000526 heartbeat IPC: 4 cumulative IPC: 4 (Simulation time: 00 hr 06 min 28 sec)
Heartbeat CPU 0 instructions: 130000003 cycles: 32500573 heartbeat IPC: 4 cumulative IPC: 4 (Simulation time: 00 hr 06 min 48 sec)
Heartbeat CPU 0 instructions: 140000001 cycles: 35000619 heartbeat IPC: 4 cumulative IPC: 4 (Simulation time: 00 hr 07 min 08 sec)
Heartbeat CPU 0 instructions: 150000001 cycles: 37500619 heartbeat IPC: 4 cumulative IPC: 4 (Simulation time: 00 hr 07 min 29 sec)
Heartbeat CPU 0 instructions: 160000001 cycles: 40000619 heartbeat IPC: 4 cumulative IPC: 4 (Simulation time: 00 hr 07 min 49 sec)
Heartbeat CPU 0 instructions: 170000000 cycles: 42500949 heartbeat IPC: 3.999 cumulative IPC: 4 (Simulation time: 00 hr 08 min 10 sec)
Heartbeat CPU 0 instructions: 180000000 cycles: 45000949 heartbeat IPC: 4 cumulative IPC: 4 (Simulation time: 00 hr 08 min 31 sec)
Heartbeat CPU 0 instructions: 190000000 cycles: 47500949 heartbeat IPC: 4 cumulative IPC: 4 (Simulation time: 00 hr 08 min 51 sec)
Heartbeat CPU 0 instructions: 200000000 cycles: 50000983 heartbeat IPC: 4 cumulative IPC: 4 (Simulation time: 00 hr 09 min 11 sec)
Heartbeat CPU 0 instructions: 210000000 cycles: 52500983 heartbeat IPC: 4 cumulative IPC: 4 (Simulation time: 00 hr 09 min 32 sec)
Heartbeat CPU 0 instructions: 220000000 cycles: 55000983 heartbeat IPC: 4 cumulative IPC: 4 (Simulation time: 00 hr 09 min 52 sec)
Heartbeat CPU 0 instructions: 230000000 cycles: 57500983 heartbeat IPC: 4 cumulative IPC: 4 (Simulation time: 00 hr 10 min 13 sec)
Heartbeat CPU 0 instructions: 240000000 cycles: 60001142 heartbeat IPC: 4 cumulative IPC: 4 (Simulation time: 00 hr 10 min 34 sec)
Heartbeat CPU 0 instructions: 250000003 cycles: 62501321 heartbeat IPC: 4 cumulative IPC: 4 (Simulation time: 00 hr 10 min 55 sec)
Heartbeat CPU 0 instructions: 260000003 cycles: 65001321 heartbeat IPC: 4 cumulative IPC: 4 (Simulation time: 00 hr 11 min 16 sec)
Heartbeat CPU 0 instructions: 270000003 cycles: 67501321 heartbeat IPC: 4 cumulative IPC: 4 (Simulation time: 00 hr 11 min 37 sec)
Heartbeat CPU 0 instructions: 280000003 cycles: 70001321 heartbeat IPC: 4 cumulative IPC: 4 (Simulation time: 00 hr 12 min 13 sec)
Heartbeat CPU 0 instructions: 290000003 cycles: 72501461 heartbeat IPC: 4 cumulative IPC: 4 (Simulation time: 00 hr 12 min 40 sec)
Heartbeat CPU 0 instructions: 300000003 cycles: 75001461 heartbeat IPC: 4 cumulative IPC: 4 (Simulation time: 00 hr 13 min 07 sec)
Heartbeat CPU 0 instructions: 310000002 cycles: 77501652 heartbeat IPC: 4 cumulative IPC: 4 (Simulation time: 00 hr 13 min 43 sec)
Heartbeat CPU 0 instructions: 320000003 cycles: 80001900 heartbeat IPC: 4 cumulative IPC: 4 (Simulation time: 00 hr 14 min 20 sec)
Heartbeat CPU 0 instructions: 330000002 cycles: 82504531 heartbeat IPC: 3.996 cumulative IPC: 4 (Simulation time: 00 hr 14 min 57 sec)
Heartbeat CPU 0 instructions: 340000000 cycles: 85004650 heartbeat IPC: 4 cumulative IPC: 4 (Simulation time: 00 hr 15 min 19 sec)
Heartbeat CPU 0 instructions: 350000000 cycles: 87504650 heartbeat IPC: 4 cumulative IPC: 4 (Simulation time: 00 hr 15 min 40 sec)
Heartbeat CPU 0 instructions: 360000001 cycles: 90011935 heartbeat IPC: 3.988 cumulative IPC: 3.999 (Simulation time: 00 hr 16 min 00 sec)
Heartbeat CPU 0 instructions: 370000001 cycles: 92511935 heartbeat IPC: 4 cumulative IPC: 3.999 (Simulation time: 00 hr 16 min 21 sec)
Heartbeat CPU 0 instructions: 380000002 cycles: 95011948 heartbeat IPC: 4 cumulative IPC: 3.999 (Simulation time: 00 hr 16 min 42 sec)
Heartbeat CPU 0 instructions: 390000003 cycles: 97511962 heartbeat IPC: 4 cumulative IPC: 4 (Simulation time: 00 hr 17 min 03 sec)
Heartbeat CPU 0 instructions: 400000003 cycles: 100011962 heartbeat IPC: 4 cumulative IPC: 4 (Simulation time: 00 hr 17 min 24 sec)
Heartbeat CPU 0 instructions: 410000003 cycles: 102511962 heartbeat IPC: 4 cumulative IPC: 4 (Simulation time: 00 hr 17 min 45 sec)
Heartbeat CPU 0 instructions: 420000003 cycles: 105012013 heartbeat IPC: 4 cumulative IPC: 4 (Simulation time: 00 hr 18 min 06 sec)
Heartbeat CPU 0 instructions: 430000001 cycles: 107512053 heartbeat IPC: 4 cumulative IPC: 4 (Simulation time: 00 hr 18 min 27 sec)
Heartbeat CPU 0 instructions: 440000003 cycles: 110019380 heartbeat IPC: 3.988 cumulative IPC: 3.999 (Simulation time: 00 hr 18 min 51 sec)
Heartbeat CPU 0 instructions: 450000003 cycles: 112519380 heartbeat IPC: 4 cumulative IPC: 3.999 (Simulation time: 00 hr 19 min 21 sec)
Heartbeat CPU 0 instructions: 460000003 cycles: 115019380 heartbeat IPC: 4 cumulative IPC: 3.999 (Simulation time: 00 hr 19 min 49 sec)
Heartbeat CPU 0 instructions: 470000003 cycles: 117528145 heartbeat IPC: 3.986 cumulative IPC: 3.999 (Simulation time: 00 hr 20 min 27 sec)
Heartbeat CPU 0 instructions: 480000003 cycles: 120031979 heartbeat IPC: 3.994 cumulative IPC: 3.999 (Simulation time: 00 hr 21 min 05 sec)
Heartbeat CPU 0 instructions: 490000000 cycles: 122532238 heartbeat IPC: 4 cumulative IPC: 3.999 (Simulation time: 00 hr 21 min 44 sec)
Heartbeat CPU 0 instructions: 500000001 cycles: 125032386 heartbeat IPC: 4 cumulative IPC: 3.999 (Simulation time: 00 hr 22 min 16 sec)
Heartbeat CPU 0 instructions: 510000002 cycles: 127532834 heartbeat IPC: 3.999 cumulative IPC: 3.999 (Simulation time: 00 hr 22 min 37 sec)
Heartbeat CPU 0 instructions: 520000002 cycles: 130042106 heartbeat IPC: 3.985 cumulative IPC: 3.999 (Simulation time: 00 hr 23 min 00 sec)
Heartbeat CPU 0 instructions: 530000001 cycles: 132542475 heartbeat IPC: 3.999 cumulative IPC: 3.999 (Simulation time: 00 hr 23 min 38 sec)
Heartbeat CPU 0 instructions: 540000000 cycles: 135052998 heartbeat IPC: 3.983 cumulative IPC: 3.998 (Simulation time: 00 hr 24 min 08 sec)
Heartbeat CPU 0 instructions: 550000001 cycles: 137557982 heartbeat IPC: 3.992 cumulative IPC: 3.998 (Simulation time: 00 hr 24 min 47 sec)
Heartbeat CPU 0 instructions: 560000001 cycles: 140057982 heartbeat IPC: 4 cumulative IPC: 3.998 (Simulation time: 00 hr 25 min 26 sec)
Heartbeat CPU 0 instructions: 570000001 cycles: 142557982 heartbeat IPC: 4 cumulative IPC: 3.998 (Simulation time: 00 hr 26 min 04 sec)
Heartbeat CPU 0 instructions: 580000001 cycles: 145057982 heartbeat IPC: 4 cumulative IPC: 3.998 (Simulation time: 00 hr 26 min 43 sec)
Heartbeat CPU 0 instructions: 590000000 cycles: 147558775 heartbeat IPC: 3.999 cumulative IPC: 3.998 (Simulation time: 00 hr 27 min 22 sec)
Heartbeat CPU 0 instructions: 600000003 cycles: 150059517 heartbeat IPC: 3.999 cumulative IPC: 3.998 (Simulation time: 00 hr 28 min 02 sec)
Heartbeat CPU 0 instructions: 610000002 cycles: 152560612 heartbeat IPC: 3.998 cumulative IPC: 3.998 (Simulation time: 00 hr 28 min 27 sec)
Heartbeat CPU 0 instructions: 620000001 cycles: 155064285 heartbeat IPC: 3.994 cumulative IPC: 3.998 (Simulation time: 00 hr 28 min 49 sec)
Heartbeat CPU 0 instructions: 630000000 cycles: 157565693 heartbeat IPC: 3.998 cumulative IPC: 3.998 (Simulation time: 00 hr 29 min 10 sec)
Heartbeat CPU 0 instructions: 640000000 cycles: 160065832 heartbeat IPC: 4 cumulative IPC: 3.998 (Simulation time: 00 hr 29 min 32 sec)
Heartbeat CPU 0 instructions: 650000003 cycles: 162566205 heartbeat IPC: 3.999 cumulative IPC: 3.998 (Simulation time: 00 hr 29 min 54 sec)
Heartbeat CPU 0 instructions: 660000002 cycles: 165068702 heartbeat IPC: 3.996 cumulative IPC: 3.998 (Simulation time: 00 hr 30 min 16 sec)
Heartbeat CPU 0 instructions: 670000002 cycles: 167568817 heartbeat IPC: 4 cumulative IPC: 3.998 (Simulation time: 00 hr 30 min 37 sec)
Heartbeat CPU 0 instructions: 680000003 cycles: 170068997 heartbeat IPC: 4 cumulative IPC: 3.998 (Simulation time: 00 hr 30 min 59 sec)
Heartbeat CPU 0 instructions: 690000000 cycles: 172597449 heartbeat IPC: 3.955 cumulative IPC: 3.998 (Simulation time: 00 hr 31 min 21 sec)
Heartbeat CPU 0 instructions: 700000000 cycles: 175097449 heartbeat IPC: 4 cumulative IPC: 3.998 (Simulation time: 00 hr 31 min 41 sec)
Heartbeat CPU 0 instructions: 710000002 cycles: 177597655 heartbeat IPC: 4 cumulative IPC: 3.998 (Simulation time: 00 hr 32 min 02 sec)
Heartbeat CPU 0 instructions: 720000002 cycles: 180097831 heartbeat IPC: 4 cumulative IPC: 3.998 (Simulation time: 00 hr 32 min 22 sec)
Heartbeat CPU 0 instructions: 730000002 cycles: 182597831 heartbeat IPC: 4 cumulative IPC: 3.998 (Simulation time: 00 hr 32 min 42 sec)
Heartbeat CPU 0 instructions: 740000002 cycles: 185097831 heartbeat IPC: 4 cumulative IPC: 3.998 (Simulation time: 00 hr 33 min 03 sec)
Heartbeat CPU 0 instructions: 750000002 cycles: 187598272 heartbeat IPC: 3.999 cumulative IPC: 3.998 (Simulation time: 00 hr 33 min 24 sec)
Heartbeat CPU 0 instructions: 760000001 cycles: 190098679 heartbeat IPC: 3.999 cumulative IPC: 3.998 (Simulation time: 00 hr 33 min 44 sec)
Heartbeat CPU 0 instructions: 770000002 cycles: 192598806 heartbeat IPC: 4 cumulative IPC: 3.998 (Simulation time: 00 hr 34 min 04 sec)
Heartbeat CPU 0 instructions: 780000002 cycles: 195098806 heartbeat IPC: 4 cumulative IPC: 3.998 (Simulation time: 00 hr 34 min 25 sec)
Heartbeat CPU 0 instructions: 790000002 cycles: 197599188 heartbeat IPC: 3.999 cumulative IPC: 3.998 (Simulation time: 00 hr 34 min 45 sec)
Heartbeat CPU 0 instructions: 800000003 cycles: 200099494 heartbeat IPC: 4 cumulative IPC: 3.998 (Simulation time: 00 hr 35 min 06 sec)
Heartbeat CPU 0 instructions: 810000001 cycles: 202600244 heartbeat IPC: 3.999 cumulative IPC: 3.998 (Simulation time: 00 hr 35 min 26 sec)
Heartbeat CPU 0 instructions: 820000001 cycles: 205100244 heartbeat IPC: 4 cumulative IPC: 3.998 (Simulation time: 00 hr 35 min 47 sec)
Heartbeat CPU 0 instructions: 830000001 cycles: 207600244 heartbeat IPC: 4 cumulative IPC: 3.998 (Simulation time: 00 hr 36 min 08 sec)
Heartbeat CPU 0 instructions: 840000002 cycles: 210100424 heartbeat IPC: 4 cumulative IPC: 3.998 (Simulation time: 00 hr 36 min 28 sec)
Heartbeat CPU 0 instructions: 850000003 cycles: 212601902 heartbeat IPC: 3.998 cumulative IPC: 3.998 (Simulation time: 00 hr 36 min 49 sec)
Heartbeat CPU 0 instructions: 860000003 cycles: 215101902 heartbeat IPC: 4 cumulative IPC: 3.998 (Simulation time: 00 hr 37 min 10 sec)
Heartbeat CPU 0 instructions: 870000003 cycles: 217601902 heartbeat IPC: 4 cumulative IPC: 3.998 (Simulation time: 00 hr 37 min 36 sec)
Heartbeat CPU 0 instructions: 880000002 cycles: 220102753 heartbeat IPC: 3.999 cumulative IPC: 3.998 (Simulation time: 00 hr 38 min 13 sec)
Heartbeat CPU 0 instructions: 890000002 cycles: 222602753 heartbeat IPC: 4 cumulative IPC: 3.998 (Simulation time: 00 hr 38 min 51 sec)
Heartbeat CPU 0 instructions: 900000002 cycles: 225103001 heartbeat IPC: 4 cumulative IPC: 3.998 (Simulation time: 00 hr 39 min 28 sec)
Heartbeat CPU 0 instructions: 910000000 cycles: 227603395 heartbeat IPC: 3.999 cumulative IPC: 3.998 (Simulation time: 00 hr 40 min 05 sec)
Heartbeat CPU 0 instructions: 920000001 cycles: 230103791 heartbeat IPC: 3.999 cumulative IPC: 3.998 (Simulation time: 00 hr 40 min 43 sec)
Heartbeat CPU 0 instructions: 930000003 cycles: 232604045 heartbeat IPC: 4 cumulative IPC: 3.998 (Simulation time: 00 hr 41 min 21 sec)
Heartbeat CPU 0 instructions: 940000003 cycles: 235104045 heartbeat IPC: 4 cumulative IPC: 3.998 (Simulation time: 00 hr 41 min 58 sec)
Heartbeat CPU 0 instructions: 950000003 cycles: 237604394 heartbeat IPC: 3.999 cumulative IPC: 3.998 (Simulation time: 00 hr 42 min 36 sec)
Heartbeat CPU 0 instructions: 960000000 cycles: 240105179 heartbeat IPC: 3.999 cumulative IPC: 3.998 (Simulation time: 00 hr 43 min 13 sec)
Heartbeat CPU 0 instructions: 970000003 cycles: 242605229 heartbeat IPC: 4 cumulative IPC: 3.998 (Simulation time: 00 hr 43 min 50 sec)
Heartbeat CPU 0 instructions: 980000002 cycles: 245105233 heartbeat IPC: 4 cumulative IPC: 3.998 (Simulation time: 00 hr 44 min 28 sec)
Heartbeat CPU 0 instructions: 990000003 cycles: 247606760 heartbeat IPC: 3.998 cumulative IPC: 3.998 (Simulation time: 00 hr 45 min 05 sec)
Heartbeat CPU 0 instructions: 1000000003 cycles: 250106760 heartbeat IPC: 4 cumulative IPC: 3.998 (Simulation time: 00 hr 45 min 43 sec)
Warmup finished CPU 0 instructions: 1000000003 cycles: 250106761 cumulative IPC: 3.998 (Simulation time: 00 hr 45 min 43 sec)
Warmup complete CPU 0 instructions: 1000000003 cycles: 250106761 cumulative IPC: 3.998 (Simulation time: 00 hr 45 min 43 sec)
Heartbeat CPU 0 instructions: 1010000001 cycles: 253098695 heartbeat IPC: 3.342 cumulative IPC: 3.342 (Simulation time: 00 hr 46 min 28 sec)
Heartbeat CPU 0 instructions: 1020000003 cycles: 255987343 heartbeat IPC: 3.462 cumulative IPC: 3.401 (Simulation time: 00 hr 47 min 12 sec)
Heartbeat CPU 0 instructions: 1030000000 cycles: 258769506 heartbeat IPC: 3.594 cumulative IPC: 3.463 (Simulation time: 00 hr 47 min 55 sec)
Heartbeat CPU 0 instructions: 1040000000 cycles: 261602483 heartbeat IPC: 3.53 cumulative IPC: 3.48 (Simulation time: 00 hr 48 min 39 sec)
Heartbeat CPU 0 instructions: 1050000000 cycles: 264481479 heartbeat IPC: 3.473 cumulative IPC: 3.478 (Simulation time: 00 hr 49 min 23 sec)
Heartbeat CPU 0 instructions: 1060000001 cycles: 267430924 heartbeat IPC: 3.39 cumulative IPC: 3.463 (Simulation time: 00 hr 50 min 07 sec)
Heartbeat CPU 0 instructions: 1070000002 cycles: 270466458 heartbeat IPC: 3.294 cumulative IPC: 3.438 (Simulation time: 00 hr 50 min 52 sec)
Heartbeat CPU 0 instructions: 1080000003 cycles: 273359112 heartbeat IPC: 3.457 cumulative IPC: 3.441 (Simulation time: 00 hr 51 min 36 sec)
Heartbeat CPU 0 instructions: 1090000000 cycles: 276254174 heartbeat IPC: 3.454 cumulative IPC: 3.442 (Simulation time: 00 hr 52 min 20 sec)
Heartbeat CPU 0 instructions: 1100000000 cycles: 279010480 heartbeat IPC: 3.628 cumulative IPC: 3.46 (Simulation time: 00 hr 53 min 04 sec)
Heartbeat CPU 0 instructions: 1110000004 cycles: 281949858 heartbeat IPC: 3.402 cumulative IPC: 3.454 (Simulation time: 00 hr 53 min 48 sec)
Heartbeat CPU 0 instructions: 1120000000 cycles: 284828086 heartbeat IPC: 3.474 cumulative IPC: 3.456 (Simulation time: 00 hr 54 min 32 sec)
Heartbeat CPU 0 instructions: 1130000002 cycles: 287459040 heartbeat IPC: 3.801 cumulative IPC: 3.48 (Simulation time: 00 hr 55 min 14 sec)
Heartbeat CPU 0 instructions: 1140000001 cycles: 290492960 heartbeat IPC: 3.296 cumulative IPC: 3.467 (Simulation time: 00 hr 55 min 59 sec)
Heartbeat CPU 0 instructions: 1150000000 cycles: 293418296 heartbeat IPC: 3.418 cumulative IPC: 3.463 (Simulation time: 00 hr 56 min 43 sec)
Heartbeat CPU 0 instructions: 1160000000 cycles: 296300554 heartbeat IPC: 3.47 cumulative IPC: 3.464 (Simulation time: 00 hr 57 min 27 sec)
Heartbeat CPU 0 instructions: 1170000004 cycles: 299084687 heartbeat IPC: 3.592 cumulative IPC: 3.471 (Simulation time: 00 hr 58 min 10 sec)
Heartbeat CPU 0 instructions: 1180000004 cycles: 301900642 heartbeat IPC: 3.551 cumulative IPC: 3.475 (Simulation time: 00 hr 58 min 53 sec)
Heartbeat CPU 0 instructions: 1190000004 cycles: 304852782 heartbeat IPC: 3.387 cumulative IPC: 3.471 (Simulation time: 00 hr 59 min 37 sec)
Heartbeat CPU 0 instructions: 1200000000 cycles: 307586372 heartbeat IPC: 3.658 cumulative IPC: 3.479 (Simulation time: 01 hr 00 min 03 sec)
Heartbeat CPU 0 instructions: 1210000003 cycles: 310477623 heartbeat IPC: 3.459 cumulative IPC: 3.478 (Simulation time: 01 hr 00 min 47 sec)
Heartbeat CPU 0 instructions: 1220000001 cycles: 314372261 heartbeat IPC: 2.568 cumulative IPC: 3.423 (Simulation time: 01 hr 01 min 39 sec)
Heartbeat CPU 0 instructions: 1230000001 cycles: 318634101 heartbeat IPC: 2.346 cumulative IPC: 3.356 (Simulation time: 01 hr 02 min 34 sec)
Heartbeat CPU 0 instructions: 1240000000 cycles: 323781627 heartbeat IPC: 1.943 cumulative IPC: 3.258 (Simulation time: 01 hr 03 min 37 sec)
Heartbeat CPU 0 instructions: 1250000002 cycles: 329273665 heartbeat IPC: 1.821 cumulative IPC: 3.158 (Simulation time: 01 hr 04 min 35 sec)
Heartbeat CPU 0 instructions: 1260000002 cycles: 332362519 heartbeat IPC: 3.237 cumulative IPC: 3.161 (Simulation time: 01 hr 05 min 01 sec)
Heartbeat CPU 0 instructions: 1270000003 cycles: 335274152 heartbeat IPC: 3.434 cumulative IPC: 3.17 (Simulation time: 01 hr 05 min 26 sec)
Heartbeat CPU 0 instructions: 1280000001 cycles: 338359619 heartbeat IPC: 3.241 cumulative IPC: 3.173 (Simulation time: 01 hr 05 min 52 sec)
Heartbeat CPU 0 instructions: 1290000002 cycles: 341445418 heartbeat IPC: 3.241 cumulative IPC: 3.175 (Simulation time: 01 hr 06 min 18 sec)
Heartbeat CPU 0 instructions: 1300000001 cycles: 344523024 heartbeat IPC: 3.249 cumulative IPC: 3.177 (Simulation time: 01 hr 06 min 43 sec)
Heartbeat CPU 0 instructions: 1310000000 cycles: 347642983 heartbeat IPC: 3.205 cumulative IPC: 3.178 (Simulation time: 01 hr 07 min 09 sec)
Heartbeat CPU 0 instructions: 1320000003 cycles: 353329364 heartbeat IPC: 1.759 cumulative IPC: 3.1 (Simulation time: 01 hr 07 min 45 sec)
Heartbeat CPU 0 instructions: 1330000002 cycles: 359047283 heartbeat IPC: 1.749 cumulative IPC: 3.029 (Simulation time: 01 hr 08 min 21 sec)
Heartbeat CPU 0 instructions: 1340000003 cycles: 364141004 heartbeat IPC: 1.963 cumulative IPC: 2.982 (Simulation time: 01 hr 08 min 54 sec)
Heartbeat CPU 0 instructions: 1350000001 cycles: 367310645 heartbeat IPC: 3.155 cumulative IPC: 2.986 (Simulation time: 01 hr 09 min 19 sec)
Heartbeat CPU 0 instructions: 1360000001 cycles: 370535198 heartbeat IPC: 3.101 cumulative IPC: 2.989 (Simulation time: 01 hr 09 min 45 sec)
Heartbeat CPU 0 instructions: 1370000002 cycles: 373770018 heartbeat IPC: 3.091 cumulative IPC: 2.992 (Simulation time: 01 hr 10 min 12 sec)
Heartbeat CPU 0 instructions: 1380000000 cycles: 379480473 heartbeat IPC: 1.751 cumulative IPC: 2.937 (Simulation time: 01 hr 10 min 47 sec)
Heartbeat CPU 0 instructions: 1390000003 cycles: 385309259 heartbeat IPC: 1.716 cumulative IPC: 2.885 (Simulation time: 01 hr 11 min 23 sec)
Heartbeat CPU 0 instructions: 1400000001 cycles: 389884253 heartbeat IPC: 2.186 cumulative IPC: 2.862 (Simulation time: 01 hr 11 min 54 sec)
Heartbeat CPU 0 instructions: 1410000003 cycles: 392856784 heartbeat IPC: 3.364 cumulative IPC: 2.872 (Simulation time: 01 hr 12 min 18 sec)
Heartbeat CPU 0 instructions: 1420000002 cycles: 395807946 heartbeat IPC: 3.388 cumulative IPC: 2.883 (Simulation time: 01 hr 12 min 43 sec)
Heartbeat CPU 0 instructions: 1430000000 cycles: 398686572 heartbeat IPC: 3.474 cumulative IPC: 2.894 (Simulation time: 01 hr 13 min 07 sec)
Heartbeat CPU 0 instructions: 1440000002 cycles: 401558876 heartbeat IPC: 3.482 cumulative IPC: 2.905 (Simulation time: 01 hr 13 min 31 sec)
Heartbeat CPU 0 instructions: 1450000000 cycles: 404431096 heartbeat IPC: 3.482 cumulative IPC: 2.916 (Simulation time: 01 hr 13 min 56 sec)
Heartbeat CPU 0 instructions: 1460000000 cycles: 407339818 heartbeat IPC: 3.438 cumulative IPC: 2.926 (Simulation time: 01 hr 14 min 20 sec)
Heartbeat CPU 0 instructions: 1470000004 cycles: 410292868 heartbeat IPC: 3.386 cumulative IPC: 2.934 (Simulation time: 01 hr 14 min 45 sec)
Heartbeat CPU 0 instructions: 1480000002 cycles: 413235512 heartbeat IPC: 3.398 cumulative IPC: 2.942 (Simulation time: 01 hr 15 min 10 sec)
Heartbeat CPU 0 instructions: 1490000002 cycles: 416124643 heartbeat IPC: 3.461 cumulative IPC: 2.951 (Simulation time: 01 hr 15 min 34 sec)
Heartbeat CPU 0 instructions: 1500000001 cycles: 419130729 heartbeat IPC: 3.327 cumulative IPC: 2.958 (Simulation time: 01 hr 15 min 59 sec)
Simulation finished CPU 0 instructions: 500000003 cycles: 169023970 cumulative IPC: 2.958 (Simulation time: 01 hr 15 min 59 sec)
Simulation complete CPU 0 instructions: 500000003 cycles: 169023970 cumulative IPC: 2.958 (Simulation time: 01 hr 15 min 59 sec)

ChampSim completed all CPUs

=== Simulation ===
CPU 0 runs traces/600.perlbench_s-210B.champsimtrace.xz
Region of Interest Statistics

CPU 0 cumulative IPC: 2.958 instructions: 500000003 cycles: 169023970
CPU 0 Branch Prediction Accuracy: 98.27% MPKI: 2.596 Average ROB Occupancy at Mispredict: 91.2
Branch type MPKI
BRANCH_DIRECT_JUMP: 0.0578
BRANCH_INDIRECT: 0.296
BRANCH_CONDITIONAL: 2.06
BRANCH_DIRECT_CALL: 0.0136
BRANCH_INDIRECT_CALL: 0.154
BRANCH_RETURN: 0.0117

LLC TOTAL        ACCESS:     354938 HIT:     107481 MISS:     247457
LLC LOAD         ACCESS:     285192 HIT:      63409 MISS:     221783
LLC RFO          ACCESS:      16328 HIT:       4870 MISS:      11458
LLC PREFETCH     ACCESS:          0 HIT:          0 MISS:          0
LLC WRITE        ACCESS:      36180 HIT:      36025 MISS:        155
LLC TRANSLATION  ACCESS:      17238 HIT:       3177 MISS:      14061
LLC PREFETCH REQUESTED:          0 ISSUED:          0 USEFUL:          0 USELESS:          0
LLC AVERAGE MISS LATENCY: 213.1 cycles
cpu0_DTLB TOTAL        ACCESS:  115299669 HIT:  114472951 MISS:     826718
cpu0_DTLB LOAD         ACCESS:  115299669 HIT:  114472951 MISS:     826718
cpu0_DTLB RFO          ACCESS:          0 HIT:          0 MISS:          0
cpu0_DTLB PREFETCH     ACCESS:          0 HIT:          0 MISS:          0
cpu0_DTLB WRITE        ACCESS:          0 HIT:          0 MISS:          0
cpu0_DTLB TRANSLATION  ACCESS:          0 HIT:          0 MISS:          0
cpu0_DTLB PREFETCH REQUESTED:          0 ISSUED:          0 USEFUL:          0 USELESS:          0
cpu0_DTLB AVERAGE MISS LATENCY: 9.004 cycles
cpu0_ITLB TOTAL        ACCESS:    6566103 HIT:    6373178 MISS:     192925
cpu0_ITLB LOAD         ACCESS:    6566103 HIT:    6373178 MISS:     192925
cpu0_ITLB RFO          ACCESS:          0 HIT:          0 MISS:          0
cpu0_ITLB PREFETCH     ACCESS:          0 HIT:          0 MISS:          0
cpu0_ITLB WRITE        ACCESS:          0 HIT:          0 MISS:          0
cpu0_ITLB TRANSLATION  ACCESS:          0 HIT:          0 MISS:          0
cpu0_ITLB PREFETCH REQUESTED:          0 ISSUED:          0 USEFUL:          0 USELESS:          0
cpu0_ITLB AVERAGE MISS LATENCY: 1.917 cycles
cpu0_L1D TOTAL        ACCESS:  165288173 HIT:  164112699 MISS:    1175474
cpu0_L1D LOAD         ACCESS:   62581717 HIT:   61595581 MISS:     986136
cpu0_L1D RFO          ACCESS:          0 HIT:          0 MISS:          0
cpu0_L1D PREFETCH     ACCESS:          0 HIT:          0 MISS:          0
cpu0_L1D WRITE        ACCESS:  102679635 HIT:  102514866 MISS:     164769
cpu0_L1D TRANSLATION  ACCESS:      26821 HIT:       2252 MISS:      24569
cpu0_L1D PREFETCH REQUESTED:          0 ISSUED:          0 USEFUL:          0 USELESS:          0
cpu0_L1D AVERAGE MISS LATENCY: 48.57 cycles
cpu0_L1I TOTAL        ACCESS:    7346472 HIT:    6174486 MISS:    1171986
cpu0_L1I LOAD         ACCESS:    7346472 HIT:    6174486 MISS:    1171986
cpu0_L1I RFO          ACCESS:          0 HIT:          0 MISS:          0
cpu0_L1I PREFETCH     ACCESS:          0 HIT:          0 MISS:          0
cpu0_L1I WRITE        ACCESS:          0 HIT:          0 MISS:          0
cpu0_L1I TRANSLATION  ACCESS:          0 HIT:          0 MISS:          0
cpu0_L1I PREFETCH REQUESTED:          0 ISSUED:          0 USEFUL:          0 USELESS:          0
cpu0_L1I AVERAGE MISS LATENCY: 9.148 cycles
cpu0_L2C TOTAL        ACCESS:    1565989 HIT:    1246892 MISS:     319097
cpu0_L2C LOAD         ACCESS:    1386997 HIT:    1101805 MISS:     285192
cpu0_L2C RFO          ACCESS:      48941 HIT:      32613 MISS:      16328
cpu0_L2C PREFETCH     ACCESS:          0 HIT:          0 MISS:          0
cpu0_L2C WRITE        ACCESS:     105558 HIT:     105219 MISS:        339
cpu0_L2C TRANSLATION  ACCESS:      24493 HIT:       7255 MISS:      17238
cpu0_L2C PREFETCH REQUESTED:          0 ISSUED:          0 USEFUL:          0 USELESS:          0
cpu0_L2C AVERAGE MISS LATENCY: 186 cycles
cpu0_STLB TOTAL        ACCESS:     626193 HIT:     602705 MISS:      23488
cpu0_STLB LOAD         ACCESS:     626193 HIT:     602705 MISS:      23488
cpu0_STLB RFO          ACCESS:          0 HIT:          0 MISS:          0
cpu0_STLB PREFETCH     ACCESS:          0 HIT:          0 MISS:          0
cpu0_STLB WRITE        ACCESS:          0 HIT:          0 MISS:          0
cpu0_STLB TRANSLATION  ACCESS:          0 HIT:          0 MISS:          0
cpu0_STLB PREFETCH REQUESTED:          0 ISSUED:          0 USEFUL:          0 USELESS:          0
cpu0_STLB AVERAGE MISS LATENCY: 174.9 cycles

DRAM Statistics

Channel 0 RQ ROW_BUFFER_HIT:      56397
  ROW_BUFFER_MISS:     190896
 AVG DBUS CONGESTED CYCLE: 3.83
WQ ROW_BUFFER_HIT: Channel 0 
  ROW_BUFFER_MISS:       9993
  FULL:      15546

NOT_BRANCH: 0

BRANCH_DIRECT_JUMP: 30606209

BRANCH_INDIRECT: 10609449

BRANCH_CONDITIONAL: 158589385

BRANCH_DIRECT_CALL: 10602417

BRANCH_INDIRECT_CALL: 1233095

BRANCH_RETURN: 11835512

BRANCH_OTHER: 0
