WARNING: physical memory size is smaller than virtual memory size.

*** ChampSim Multicore Out-of-Order Simulator ***
Warmup Instructions: 1000000000
Simulation Instructions: 500000000
Number of CPUs: 1
Page size: 4096

Off-chip DRAM Size: 4 GiB Channels: 1 Width: 64-bit Data Race: 3200 MT/s
Heartbeat CPU 0 instructions: 10000000 cycles: 2500066 heartbeat IPC: 4 cumulative IPC: 4 (Simulation time: 00 hr 00 min 32 sec)
Heartbeat CPU 0 instructions: 20000000 cycles: 5000066 heartbeat IPC: 4 cumulative IPC: 4 (Simulation time: 00 hr 01 min 10 sec)
Heartbeat CPU 0 instructions: 30000000 cycles: 7500066 heartbeat IPC: 4 cumulative IPC: 4 (Simulation time: 00 hr 01 min 47 sec)
Heartbeat CPU 0 instructions: 40000000 cycles: 10000066 heartbeat IPC: 4 cumulative IPC: 4 (Simulation time: 00 hr 02 min 25 sec)
Heartbeat CPU 0 instructions: 50000002 cycles: 12500111 heartbeat IPC: 4 cumulative IPC: 4 (Simulation time: 00 hr 03 min 02 sec)
Heartbeat CPU 0 instructions: 60000000 cycles: 15000216 heartbeat IPC: 4 cumulative IPC: 4 (Simulation time: 00 hr 03 min 40 sec)
Heartbeat CPU 0 instructions: 70000000 cycles: 17500216 heartbeat IPC: 4 cumulative IPC: 4 (Simulation time: 00 hr 04 min 17 sec)
Heartbeat CPU 0 instructions: 80000000 cycles: 20000216 heartbeat IPC: 4 cumulative IPC: 4 (Simulation time: 00 hr 04 min 55 sec)
Heartbeat CPU 0 instructions: 90000000 cycles: 22500216 heartbeat IPC: 4 cumulative IPC: 4 (Simulation time: 00 hr 05 min 32 sec)
Heartbeat CPU 0 instructions: 100000001 cycles: 25000531 heartbeat IPC: 3.999 cumulative IPC: 4 (Simulation time: 00 hr 06 min 10 sec)
Heartbeat CPU 0 instructions: 110000001 cycles: 27500531 heartbeat IPC: 4 cumulative IPC: 4 (Simulation time: 00 hr 06 min 47 sec)
Heartbeat CPU 0 instructions: 120000001 cycles: 30000531 heartbeat IPC: 4 cumulative IPC: 4 (Simulation time: 00 hr 07 min 24 sec)
Heartbeat CPU 0 instructions: 130000003 cycles: 32500578 heartbeat IPC: 4 cumulative IPC: 4 (Simulation time: 00 hr 08 min 02 sec)
Heartbeat CPU 0 instructions: 140000001 cycles: 35000623 heartbeat IPC: 4 cumulative IPC: 4 (Simulation time: 00 hr 08 min 39 sec)
Heartbeat CPU 0 instructions: 150000001 cycles: 37500623 heartbeat IPC: 4 cumulative IPC: 4 (Simulation time: 00 hr 09 min 17 sec)
Heartbeat CPU 0 instructions: 160000001 cycles: 40000623 heartbeat IPC: 4 cumulative IPC: 4 (Simulation time: 00 hr 09 min 54 sec)
Heartbeat CPU 0 instructions: 170000000 cycles: 42500955 heartbeat IPC: 3.999 cumulative IPC: 4 (Simulation time: 00 hr 10 min 32 sec)
Heartbeat CPU 0 instructions: 180000000 cycles: 45000955 heartbeat IPC: 4 cumulative IPC: 4 (Simulation time: 00 hr 11 min 10 sec)
Heartbeat CPU 0 instructions: 190000000 cycles: 47500955 heartbeat IPC: 4 cumulative IPC: 4 (Simulation time: 00 hr 11 min 46 sec)
Heartbeat CPU 0 instructions: 200000000 cycles: 50000985 heartbeat IPC: 4 cumulative IPC: 4 (Simulation time: 00 hr 12 min 24 sec)
Heartbeat CPU 0 instructions: 210000000 cycles: 52500985 heartbeat IPC: 4 cumulative IPC: 4 (Simulation time: 00 hr 13 min 02 sec)
Heartbeat CPU 0 instructions: 220000000 cycles: 55000985 heartbeat IPC: 4 cumulative IPC: 4 (Simulation time: 00 hr 13 min 40 sec)
Heartbeat CPU 0 instructions: 230000000 cycles: 57500985 heartbeat IPC: 4 cumulative IPC: 4 (Simulation time: 00 hr 14 min 19 sec)
Heartbeat CPU 0 instructions: 240000000 cycles: 60001144 heartbeat IPC: 4 cumulative IPC: 4 (Simulation time: 00 hr 14 min 57 sec)
Heartbeat CPU 0 instructions: 250000003 cycles: 62501323 heartbeat IPC: 4 cumulative IPC: 4 (Simulation time: 00 hr 15 min 36 sec)
Heartbeat CPU 0 instructions: 260000003 cycles: 65001323 heartbeat IPC: 4 cumulative IPC: 4 (Simulation time: 00 hr 16 min 14 sec)
Heartbeat CPU 0 instructions: 270000003 cycles: 67501323 heartbeat IPC: 4 cumulative IPC: 4 (Simulation time: 00 hr 16 min 53 sec)
Heartbeat CPU 0 instructions: 280000003 cycles: 70001323 heartbeat IPC: 4 cumulative IPC: 4 (Simulation time: 00 hr 17 min 30 sec)
Heartbeat CPU 0 instructions: 290000003 cycles: 72501462 heartbeat IPC: 4 cumulative IPC: 4 (Simulation time: 00 hr 18 min 07 sec)
Heartbeat CPU 0 instructions: 300000003 cycles: 75001462 heartbeat IPC: 4 cumulative IPC: 4 (Simulation time: 00 hr 18 min 44 sec)
Heartbeat CPU 0 instructions: 310000002 cycles: 77501657 heartbeat IPC: 4 cumulative IPC: 4 (Simulation time: 00 hr 19 min 21 sec)
Heartbeat CPU 0 instructions: 320000003 cycles: 80001904 heartbeat IPC: 4 cumulative IPC: 4 (Simulation time: 00 hr 19 min 59 sec)
Heartbeat CPU 0 instructions: 330000002 cycles: 82504535 heartbeat IPC: 3.996 cumulative IPC: 4 (Simulation time: 00 hr 20 min 36 sec)
Heartbeat CPU 0 instructions: 340000000 cycles: 85004654 heartbeat IPC: 4 cumulative IPC: 4 (Simulation time: 00 hr 21 min 04 sec)
Heartbeat CPU 0 instructions: 350000000 cycles: 87504654 heartbeat IPC: 4 cumulative IPC: 4 (Simulation time: 00 hr 21 min 24 sec)
Heartbeat CPU 0 instructions: 360000001 cycles: 90011945 heartbeat IPC: 3.988 cumulative IPC: 3.999 (Simulation time: 00 hr 21 min 44 sec)
Heartbeat CPU 0 instructions: 370000001 cycles: 92511945 heartbeat IPC: 4 cumulative IPC: 3.999 (Simulation time: 00 hr 22 min 05 sec)
Heartbeat CPU 0 instructions: 380000002 cycles: 95011958 heartbeat IPC: 4 cumulative IPC: 3.999 (Simulation time: 00 hr 22 min 40 sec)
Heartbeat CPU 0 instructions: 390000003 cycles: 97511972 heartbeat IPC: 4 cumulative IPC: 4 (Simulation time: 00 hr 23 min 18 sec)
Heartbeat CPU 0 instructions: 400000003 cycles: 100011972 heartbeat IPC: 4 cumulative IPC: 4 (Simulation time: 00 hr 23 min 56 sec)
Heartbeat CPU 0 instructions: 410000003 cycles: 102511972 heartbeat IPC: 4 cumulative IPC: 4 (Simulation time: 00 hr 24 min 35 sec)
Heartbeat CPU 0 instructions: 420000003 cycles: 105012024 heartbeat IPC: 4 cumulative IPC: 4 (Simulation time: 00 hr 25 min 13 sec)
Heartbeat CPU 0 instructions: 430000001 cycles: 107512066 heartbeat IPC: 4 cumulative IPC: 4 (Simulation time: 00 hr 25 min 51 sec)
Heartbeat CPU 0 instructions: 440000003 cycles: 110019386 heartbeat IPC: 3.988 cumulative IPC: 3.999 (Simulation time: 00 hr 26 min 29 sec)
Heartbeat CPU 0 instructions: 450000003 cycles: 112519386 heartbeat IPC: 4 cumulative IPC: 3.999 (Simulation time: 00 hr 27 min 07 sec)
Heartbeat CPU 0 instructions: 460000003 cycles: 115019386 heartbeat IPC: 4 cumulative IPC: 3.999 (Simulation time: 00 hr 27 min 46 sec)
Heartbeat CPU 0 instructions: 470000003 cycles: 117528444 heartbeat IPC: 3.986 cumulative IPC: 3.999 (Simulation time: 00 hr 28 min 25 sec)
Heartbeat CPU 0 instructions: 480000003 cycles: 120032332 heartbeat IPC: 3.994 cumulative IPC: 3.999 (Simulation time: 00 hr 29 min 04 sec)
Heartbeat CPU 0 instructions: 490000000 cycles: 122532593 heartbeat IPC: 4 cumulative IPC: 3.999 (Simulation time: 00 hr 29 min 43 sec)
Heartbeat CPU 0 instructions: 500000001 cycles: 125032741 heartbeat IPC: 4 cumulative IPC: 3.999 (Simulation time: 00 hr 30 min 22 sec)
Heartbeat CPU 0 instructions: 510000002 cycles: 127533200 heartbeat IPC: 3.999 cumulative IPC: 3.999 (Simulation time: 00 hr 31 min 02 sec)
Heartbeat CPU 0 instructions: 520000002 cycles: 130042452 heartbeat IPC: 3.985 cumulative IPC: 3.999 (Simulation time: 00 hr 31 min 43 sec)
Heartbeat CPU 0 instructions: 530000003 cycles: 132542821 heartbeat IPC: 3.999 cumulative IPC: 3.999 (Simulation time: 00 hr 32 min 25 sec)
Heartbeat CPU 0 instructions: 540000000 cycles: 135053546 heartbeat IPC: 3.983 cumulative IPC: 3.998 (Simulation time: 00 hr 33 min 06 sec)
Heartbeat CPU 0 instructions: 550000001 cycles: 137558570 heartbeat IPC: 3.992 cumulative IPC: 3.998 (Simulation time: 00 hr 33 min 46 sec)
Heartbeat CPU 0 instructions: 560000001 cycles: 140058570 heartbeat IPC: 4 cumulative IPC: 3.998 (Simulation time: 00 hr 34 min 24 sec)
Heartbeat CPU 0 instructions: 570000001 cycles: 142558570 heartbeat IPC: 4 cumulative IPC: 3.998 (Simulation time: 00 hr 35 min 03 sec)
Heartbeat CPU 0 instructions: 580000001 cycles: 145058570 heartbeat IPC: 4 cumulative IPC: 3.998 (Simulation time: 00 hr 35 min 41 sec)
Heartbeat CPU 0 instructions: 590000000 cycles: 147559366 heartbeat IPC: 3.999 cumulative IPC: 3.998 (Simulation time: 00 hr 36 min 20 sec)
Heartbeat CPU 0 instructions: 600000003 cycles: 150060115 heartbeat IPC: 3.999 cumulative IPC: 3.998 (Simulation time: 00 hr 37 min 00 sec)
Heartbeat CPU 0 instructions: 610000002 cycles: 152561221 heartbeat IPC: 3.998 cumulative IPC: 3.998 (Simulation time: 00 hr 37 min 40 sec)
Heartbeat CPU 0 instructions: 620000002 cycles: 155064904 heartbeat IPC: 3.994 cumulative IPC: 3.998 (Simulation time: 00 hr 38 min 21 sec)
Heartbeat CPU 0 instructions: 630000000 cycles: 157566317 heartbeat IPC: 3.998 cumulative IPC: 3.998 (Simulation time: 00 hr 39 min 00 sec)
Heartbeat CPU 0 instructions: 640000000 cycles: 160066455 heartbeat IPC: 4 cumulative IPC: 3.998 (Simulation time: 00 hr 39 min 36 sec)
Heartbeat CPU 0 instructions: 650000003 cycles: 162566838 heartbeat IPC: 3.999 cumulative IPC: 3.998 (Simulation time: 00 hr 39 min 58 sec)
Heartbeat CPU 0 instructions: 660000001 cycles: 165069344 heartbeat IPC: 3.996 cumulative IPC: 3.998 (Simulation time: 00 hr 40 min 20 sec)
Heartbeat CPU 0 instructions: 670000002 cycles: 167569460 heartbeat IPC: 4 cumulative IPC: 3.998 (Simulation time: 00 hr 40 min 41 sec)
Heartbeat CPU 0 instructions: 680000003 cycles: 170069651 heartbeat IPC: 4 cumulative IPC: 3.998 (Simulation time: 00 hr 41 min 03 sec)
Heartbeat CPU 0 instructions: 690000000 cycles: 172598161 heartbeat IPC: 3.955 cumulative IPC: 3.998 (Simulation time: 00 hr 41 min 25 sec)
Heartbeat CPU 0 instructions: 700000000 cycles: 175098161 heartbeat IPC: 4 cumulative IPC: 3.998 (Simulation time: 00 hr 41 min 46 sec)
Heartbeat CPU 0 instructions: 710000002 cycles: 177598366 heartbeat IPC: 4 cumulative IPC: 3.998 (Simulation time: 00 hr 42 min 06 sec)
Heartbeat CPU 0 instructions: 720000002 cycles: 180098539 heartbeat IPC: 4 cumulative IPC: 3.998 (Simulation time: 00 hr 42 min 27 sec)
Heartbeat CPU 0 instructions: 730000002 cycles: 182598539 heartbeat IPC: 4 cumulative IPC: 3.998 (Simulation time: 00 hr 42 min 47 sec)
Heartbeat CPU 0 instructions: 740000002 cycles: 185098539 heartbeat IPC: 4 cumulative IPC: 3.998 (Simulation time: 00 hr 43 min 08 sec)
Heartbeat CPU 0 instructions: 750000002 cycles: 187598979 heartbeat IPC: 3.999 cumulative IPC: 3.998 (Simulation time: 00 hr 43 min 29 sec)
Heartbeat CPU 0 instructions: 760000001 cycles: 190099380 heartbeat IPC: 3.999 cumulative IPC: 3.998 (Simulation time: 00 hr 43 min 49 sec)
Heartbeat CPU 0 instructions: 770000002 cycles: 192599508 heartbeat IPC: 4 cumulative IPC: 3.998 (Simulation time: 00 hr 44 min 10 sec)
Heartbeat CPU 0 instructions: 780000002 cycles: 195099508 heartbeat IPC: 4 cumulative IPC: 3.998 (Simulation time: 00 hr 44 min 31 sec)
Heartbeat CPU 0 instructions: 790000002 cycles: 197599877 heartbeat IPC: 3.999 cumulative IPC: 3.998 (Simulation time: 00 hr 44 min 52 sec)
Heartbeat CPU 0 instructions: 800000003 cycles: 200100183 heartbeat IPC: 4 cumulative IPC: 3.998 (Simulation time: 00 hr 45 min 12 sec)
Heartbeat CPU 0 instructions: 810000001 cycles: 202600935 heartbeat IPC: 3.999 cumulative IPC: 3.998 (Simulation time: 00 hr 45 min 33 sec)
Heartbeat CPU 0 instructions: 820000001 cycles: 205100935 heartbeat IPC: 4 cumulative IPC: 3.998 (Simulation time: 00 hr 45 min 54 sec)
Heartbeat CPU 0 instructions: 830000001 cycles: 207600935 heartbeat IPC: 4 cumulative IPC: 3.998 (Simulation time: 00 hr 46 min 14 sec)
Heartbeat CPU 0 instructions: 840000002 cycles: 210101113 heartbeat IPC: 4 cumulative IPC: 3.998 (Simulation time: 00 hr 46 min 35 sec)
Heartbeat CPU 0 instructions: 850000003 cycles: 212602590 heartbeat IPC: 3.998 cumulative IPC: 3.998 (Simulation time: 00 hr 46 min 56 sec)
Heartbeat CPU 0 instructions: 860000003 cycles: 215102590 heartbeat IPC: 4 cumulative IPC: 3.998 (Simulation time: 00 hr 47 min 21 sec)
Heartbeat CPU 0 instructions: 870000003 cycles: 217602590 heartbeat IPC: 4 cumulative IPC: 3.998 (Simulation time: 00 hr 47 min 58 sec)
Heartbeat CPU 0 instructions: 880000002 cycles: 220103441 heartbeat IPC: 3.999 cumulative IPC: 3.998 (Simulation time: 00 hr 48 min 36 sec)
Heartbeat CPU 0 instructions: 890000002 cycles: 222603441 heartbeat IPC: 4 cumulative IPC: 3.998 (Simulation time: 00 hr 49 min 14 sec)
Heartbeat CPU 0 instructions: 900000002 cycles: 225103690 heartbeat IPC: 4 cumulative IPC: 3.998 (Simulation time: 00 hr 49 min 50 sec)
Heartbeat CPU 0 instructions: 910000000 cycles: 227604084 heartbeat IPC: 3.999 cumulative IPC: 3.998 (Simulation time: 00 hr 50 min 27 sec)
Heartbeat CPU 0 instructions: 920000001 cycles: 230104480 heartbeat IPC: 3.999 cumulative IPC: 3.998 (Simulation time: 00 hr 51 min 04 sec)
Heartbeat CPU 0 instructions: 930000003 cycles: 232604733 heartbeat IPC: 4 cumulative IPC: 3.998 (Simulation time: 00 hr 51 min 41 sec)
Heartbeat CPU 0 instructions: 940000003 cycles: 235104733 heartbeat IPC: 4 cumulative IPC: 3.998 (Simulation time: 00 hr 52 min 18 sec)
Heartbeat CPU 0 instructions: 950000003 cycles: 237605081 heartbeat IPC: 3.999 cumulative IPC: 3.998 (Simulation time: 00 hr 52 min 55 sec)
Heartbeat CPU 0 instructions: 960000000 cycles: 240105853 heartbeat IPC: 3.999 cumulative IPC: 3.998 (Simulation time: 00 hr 53 min 32 sec)
Heartbeat CPU 0 instructions: 970000003 cycles: 242605904 heartbeat IPC: 4 cumulative IPC: 3.998 (Simulation time: 00 hr 54 min 08 sec)
Heartbeat CPU 0 instructions: 980000002 cycles: 245105908 heartbeat IPC: 4 cumulative IPC: 3.998 (Simulation time: 00 hr 54 min 42 sec)
Heartbeat CPU 0 instructions: 990000003 cycles: 247607431 heartbeat IPC: 3.998 cumulative IPC: 3.998 (Simulation time: 00 hr 55 min 03 sec)
Heartbeat CPU 0 instructions: 1000000003 cycles: 250107431 heartbeat IPC: 4 cumulative IPC: 3.998 (Simulation time: 00 hr 55 min 23 sec)
Warmup finished CPU 0 instructions: 1000000003 cycles: 250107432 cumulative IPC: 3.998 (Simulation time: 00 hr 55 min 23 sec)
Warmup complete CPU 0 instructions: 1000000003 cycles: 250107432 cumulative IPC: 3.998 (Simulation time: 00 hr 55 min 23 sec)
Heartbeat CPU 0 instructions: 1010000001 cycles: 253067942 heartbeat IPC: 3.378 cumulative IPC: 3.378 (Simulation time: 00 hr 55 min 48 sec)
Heartbeat CPU 0 instructions: 1020000003 cycles: 255957802 heartbeat IPC: 3.46 cumulative IPC: 3.419 (Simulation time: 00 hr 56 min 13 sec)
Heartbeat CPU 0 instructions: 1030000000 cycles: 258740238 heartbeat IPC: 3.594 cumulative IPC: 3.475 (Simulation time: 00 hr 56 min 38 sec)
Heartbeat CPU 0 instructions: 1040000000 cycles: 261573822 heartbeat IPC: 3.529 cumulative IPC: 3.488 (Simulation time: 00 hr 57 min 02 sec)
Heartbeat CPU 0 instructions: 1050000000 cycles: 264453664 heartbeat IPC: 3.472 cumulative IPC: 3.485 (Simulation time: 00 hr 57 min 27 sec)
Heartbeat CPU 0 instructions: 1060000001 cycles: 267411058 heartbeat IPC: 3.381 cumulative IPC: 3.467 (Simulation time: 00 hr 57 min 52 sec)
Heartbeat CPU 0 instructions: 1070000000 cycles: 270454381 heartbeat IPC: 3.286 cumulative IPC: 3.44 (Simulation time: 00 hr 58 min 17 sec)
Heartbeat CPU 0 instructions: 1080000003 cycles: 273366385 heartbeat IPC: 3.434 cumulative IPC: 3.44 (Simulation time: 00 hr 58 min 42 sec)
Heartbeat CPU 0 instructions: 1090000000 cycles: 276278991 heartbeat IPC: 3.433 cumulative IPC: 3.439 (Simulation time: 00 hr 59 min 07 sec)
Heartbeat CPU 0 instructions: 1100000000 cycles: 279035888 heartbeat IPC: 3.627 cumulative IPC: 3.457 (Simulation time: 00 hr 59 min 32 sec)
Heartbeat CPU 0 instructions: 1110000004 cycles: 281980075 heartbeat IPC: 3.397 cumulative IPC: 3.451 (Simulation time: 01 hr 00 min 11 sec)
Heartbeat CPU 0 instructions: 1120000000 cycles: 284860873 heartbeat IPC: 3.471 cumulative IPC: 3.453 (Simulation time: 01 hr 00 min 55 sec)
Heartbeat CPU 0 instructions: 1130000002 cycles: 287492845 heartbeat IPC: 3.799 cumulative IPC: 3.477 (Simulation time: 01 hr 01 min 38 sec)
Heartbeat CPU 0 instructions: 1140000002 cycles: 290562471 heartbeat IPC: 3.258 cumulative IPC: 3.461 (Simulation time: 01 hr 02 min 23 sec)
Heartbeat CPU 0 instructions: 1150000001 cycles: 293499785 heartbeat IPC: 3.404 cumulative IPC: 3.457 (Simulation time: 01 hr 03 min 07 sec)
Heartbeat CPU 0 instructions: 1160000000 cycles: 296390298 heartbeat IPC: 3.46 cumulative IPC: 3.457 (Simulation time: 01 hr 03 min 51 sec)
Heartbeat CPU 0 instructions: 1170000004 cycles: 299176078 heartbeat IPC: 3.59 cumulative IPC: 3.465 (Simulation time: 01 hr 04 min 32 sec)
Heartbeat CPU 0 instructions: 1180000004 cycles: 301992699 heartbeat IPC: 3.55 cumulative IPC: 3.469 (Simulation time: 01 hr 04 min 57 sec)
Heartbeat CPU 0 instructions: 1190000004 cycles: 304945843 heartbeat IPC: 3.386 cumulative IPC: 3.465 (Simulation time: 01 hr 05 min 21 sec)
Heartbeat CPU 0 instructions: 1200000000 cycles: 307693120 heartbeat IPC: 3.64 cumulative IPC: 3.473 (Simulation time: 01 hr 05 min 46 sec)
Heartbeat CPU 0 instructions: 1210000003 cycles: 310595178 heartbeat IPC: 3.446 cumulative IPC: 3.472 (Simulation time: 01 hr 06 min 10 sec)
Heartbeat CPU 0 instructions: 1220000001 cycles: 314502883 heartbeat IPC: 2.559 cumulative IPC: 3.416 (Simulation time: 01 hr 06 min 39 sec)
Heartbeat CPU 0 instructions: 1230000001 cycles: 318803802 heartbeat IPC: 2.325 cumulative IPC: 3.348 (Simulation time: 01 hr 07 min 09 sec)
Heartbeat CPU 0 instructions: 1240000000 cycles: 323984221 heartbeat IPC: 1.93 cumulative IPC: 3.249 (Simulation time: 01 hr 07 min 42 sec)
Heartbeat CPU 0 instructions: 1250000002 cycles: 329499210 heartbeat IPC: 1.813 cumulative IPC: 3.149 (Simulation time: 01 hr 08 min 17 sec)
Heartbeat CPU 0 instructions: 1260000002 cycles: 332606816 heartbeat IPC: 3.218 cumulative IPC: 3.152 (Simulation time: 01 hr 08 min 42 sec)
Heartbeat CPU 0 instructions: 1270000003 cycles: 335548369 heartbeat IPC: 3.4 cumulative IPC: 3.16 (Simulation time: 01 hr 09 min 07 sec)
Heartbeat CPU 0 instructions: 1280000001 cycles: 338647086 heartbeat IPC: 3.227 cumulative IPC: 3.162 (Simulation time: 01 hr 09 min 32 sec)
Heartbeat CPU 0 instructions: 1290000002 cycles: 341736499 heartbeat IPC: 3.237 cumulative IPC: 3.165 (Simulation time: 01 hr 09 min 57 sec)
Heartbeat CPU 0 instructions: 1300000001 cycles: 344823232 heartbeat IPC: 3.24 cumulative IPC: 3.167 (Simulation time: 01 hr 10 min 23 sec)
Heartbeat CPU 0 instructions: 1310000000 cycles: 347955307 heartbeat IPC: 3.193 cumulative IPC: 3.168 (Simulation time: 01 hr 10 min 48 sec)
Heartbeat CPU 0 instructions: 1320000003 cycles: 353714721 heartbeat IPC: 1.736 cumulative IPC: 3.089 (Simulation time: 01 hr 11 min 23 sec)
Heartbeat CPU 0 instructions: 1330000002 cycles: 359500795 heartbeat IPC: 1.728 cumulative IPC: 3.017 (Simulation time: 01 hr 11 min 59 sec)
Heartbeat CPU 0 instructions: 1340000002 cycles: 364611758 heartbeat IPC: 1.957 cumulative IPC: 2.969 (Simulation time: 01 hr 12 min 32 sec)
Heartbeat CPU 0 instructions: 1350000001 cycles: 367812555 heartbeat IPC: 3.124 cumulative IPC: 2.974 (Simulation time: 01 hr 12 min 58 sec)
Heartbeat CPU 0 instructions: 1360000001 cycles: 371045621 heartbeat IPC: 3.093 cumulative IPC: 2.977 (Simulation time: 01 hr 13 min 24 sec)
Heartbeat CPU 0 instructions: 1370000002 cycles: 374288522 heartbeat IPC: 3.084 cumulative IPC: 2.98 (Simulation time: 01 hr 13 min 50 sec)
Heartbeat CPU 0 instructions: 1380000000 cycles: 380063826 heartbeat IPC: 1.732 cumulative IPC: 2.924 (Simulation time: 01 hr 14 min 25 sec)
Heartbeat CPU 0 instructions: 1390000003 cycles: 385961098 heartbeat IPC: 1.696 cumulative IPC: 2.871 (Simulation time: 01 hr 15 min 02 sec)
Heartbeat CPU 0 instructions: 1400000001 cycles: 390555609 heartbeat IPC: 2.177 cumulative IPC: 2.848 (Simulation time: 01 hr 15 min 32 sec)
Heartbeat CPU 0 instructions: 1410000003 cycles: 393572158 heartbeat IPC: 3.315 cumulative IPC: 2.858 (Simulation time: 01 hr 15 min 57 sec)
Heartbeat CPU 0 instructions: 1420000002 cycles: 396524398 heartbeat IPC: 3.387 cumulative IPC: 2.869 (Simulation time: 01 hr 16 min 20 sec)
Heartbeat CPU 0 instructions: 1430000001 cycles: 399466183 heartbeat IPC: 3.399 cumulative IPC: 2.879 (Simulation time: 01 hr 16 min 43 sec)
Heartbeat CPU 0 instructions: 1440000003 cycles: 402346323 heartbeat IPC: 3.472 cumulative IPC: 2.89 (Simulation time: 01 hr 17 min 05 sec)
Heartbeat CPU 0 instructions: 1450000000 cycles: 405220482 heartbeat IPC: 3.479 cumulative IPC: 2.901 (Simulation time: 01 hr 17 min 28 sec)
Heartbeat CPU 0 instructions: 1460000000 cycles: 408148427 heartbeat IPC: 3.415 cumulative IPC: 2.911 (Simulation time: 01 hr 17 min 51 sec)
Heartbeat CPU 0 instructions: 1470000004 cycles: 411107908 heartbeat IPC: 3.379 cumulative IPC: 2.919 (Simulation time: 01 hr 18 min 15 sec)
Heartbeat CPU 0 instructions: 1480000002 cycles: 414054085 heartbeat IPC: 3.394 cumulative IPC: 2.928 (Simulation time: 01 hr 18 min 38 sec)
Heartbeat CPU 0 instructions: 1490000002 cycles: 416945424 heartbeat IPC: 3.459 cumulative IPC: 2.937 (Simulation time: 01 hr 19 min 01 sec)
Heartbeat CPU 0 instructions: 1500000001 cycles: 419966636 heartbeat IPC: 3.31 cumulative IPC: 2.944 (Simulation time: 01 hr 19 min 24 sec)
Simulation finished CPU 0 instructions: 500000003 cycles: 169859206 cumulative IPC: 2.944 (Simulation time: 01 hr 19 min 24 sec)
Simulation complete CPU 0 instructions: 500000003 cycles: 169859206 cumulative IPC: 2.944 (Simulation time: 01 hr 19 min 24 sec)

ChampSim completed all CPUs

=== Simulation ===
CPU 0 runs traces/600.perlbench_s-210B.champsimtrace.xz
Region of Interest Statistics

CPU 0 cumulative IPC: 2.944 instructions: 500000003 cycles: 169859206
CPU 0 Branch Prediction Accuracy: 98.22% MPKI: 2.665 Average ROB Occupancy at Mispredict: 89.92
Branch type MPKI
BRANCH_DIRECT_JUMP: 0.0578
BRANCH_INDIRECT: 0.296
BRANCH_CONDITIONAL: 2.13
BRANCH_DIRECT_CALL: 0.0136
BRANCH_INDIRECT_CALL: 0.154
BRANCH_RETURN: 0.0117

LLC TOTAL        ACCESS:     353645 HIT:     105986 MISS:     247659
LLC LOAD         ACCESS:     283657 HIT:      61760 MISS:     221897
LLC RFO          ACCESS:      16414 HIT:       4934 MISS:      11480
LLC PREFETCH     ACCESS:          0 HIT:          0 MISS:          0
LLC WRITE        ACCESS:      36193 HIT:      35994 MISS:        199
LLC TRANSLATION  ACCESS:      17381 HIT:       3298 MISS:      14083
LLC PREFETCH REQUESTED:          0 ISSUED:          0 USEFUL:          0 USELESS:          0
LLC AVERAGE MISS LATENCY: 212.5 cycles
cpu0_DTLB TOTAL        ACCESS:  115428756 HIT:  114597826 MISS:     830930
cpu0_DTLB LOAD         ACCESS:  115428756 HIT:  114597826 MISS:     830930
cpu0_DTLB RFO          ACCESS:          0 HIT:          0 MISS:          0
cpu0_DTLB PREFETCH     ACCESS:          0 HIT:          0 MISS:          0
cpu0_DTLB WRITE        ACCESS:          0 HIT:          0 MISS:          0
cpu0_DTLB TRANSLATION  ACCESS:          0 HIT:          0 MISS:          0
cpu0_DTLB PREFETCH REQUESTED:          0 ISSUED:          0 USEFUL:          0 USELESS:          0
cpu0_DTLB AVERAGE MISS LATENCY: 8.944 cycles
cpu0_ITLB TOTAL        ACCESS:    6567075 HIT:    6374523 MISS:     192552
cpu0_ITLB LOAD         ACCESS:    6567075 HIT:    6374523 MISS:     192552
cpu0_ITLB RFO          ACCESS:          0 HIT:          0 MISS:          0
cpu0_ITLB PREFETCH     ACCESS:          0 HIT:          0 MISS:          0
cpu0_ITLB WRITE        ACCESS:          0 HIT:          0 MISS:          0
cpu0_ITLB TRANSLATION  ACCESS:          0 HIT:          0 MISS:          0
cpu0_ITLB PREFETCH REQUESTED:          0 ISSUED:          0 USEFUL:          0 USELESS:          0
cpu0_ITLB AVERAGE MISS LATENCY: 1.917 cycles
cpu0_L1D TOTAL        ACCESS:  165509127 HIT:  164336656 MISS:    1172471
cpu0_L1D LOAD         ACCESS:   62806527 HIT:   61822675 MISS:     983852
cpu0_L1D RFO          ACCESS:          0 HIT:          0 MISS:          0
cpu0_L1D PREFETCH     ACCESS:          0 HIT:          0 MISS:          0
cpu0_L1D WRITE        ACCESS:  102675788 HIT:  102511726 MISS:     164062
cpu0_L1D TRANSLATION  ACCESS:      26812 HIT:       2255 MISS:      24557
cpu0_L1D PREFETCH REQUESTED:          0 ISSUED:          0 USEFUL:          0 USELESS:          0
cpu0_L1D AVERAGE MISS LATENCY: 48.63 cycles
cpu0_L1I TOTAL        ACCESS:    7347953 HIT:    6176133 MISS:    1171820
cpu0_L1I LOAD         ACCESS:    7347953 HIT:    6176133 MISS:    1171820
cpu0_L1I RFO          ACCESS:          0 HIT:          0 MISS:          0
cpu0_L1I PREFETCH     ACCESS:          0 HIT:          0 MISS:          0
cpu0_L1I WRITE        ACCESS:          0 HIT:          0 MISS:          0
cpu0_L1I TRANSLATION  ACCESS:          0 HIT:          0 MISS:          0
cpu0_L1I PREFETCH REQUESTED:          0 ISSUED:          0 USEFUL:          0 USELESS:          0
cpu0_L1I AVERAGE MISS LATENCY: 9.162 cycles
cpu0_L2C TOTAL        ACCESS:    1565893 HIT:    1248078 MISS:     317815
cpu0_L2C LOAD         ACCESS:    1387050 HIT:    1103393 MISS:     283657
cpu0_L2C RFO          ACCESS:      48909 HIT:      32495 MISS:      16414
cpu0_L2C PREFETCH     ACCESS:          0 HIT:          0 MISS:          0
cpu0_L2C WRITE        ACCESS:     105455 HIT:     105092 MISS:        363
cpu0_L2C TRANSLATION  ACCESS:      24479 HIT:       7098 MISS:      17381
cpu0_L2C PREFETCH REQUESTED:          0 ISSUED:          0 USEFUL:          0 USELESS:          0
cpu0_L2C AVERAGE MISS LATENCY: 186.4 cycles
cpu0_STLB TOTAL        ACCESS:     626698 HIT:     603210 MISS:      23488
cpu0_STLB LOAD         ACCESS:     626698 HIT:     603210 MISS:      23488
cpu0_STLB RFO          ACCESS:          0 HIT:          0 MISS:          0
cpu0_STLB PREFETCH     ACCESS:          0 HIT:          0 MISS:          0
cpu0_STLB WRITE        ACCESS:          0 HIT:          0 MISS:          0
cpu0_STLB TRANSLATION  ACCESS:          0 HIT:          0 MISS:          0
cpu0_STLB PREFETCH REQUESTED:          0 ISSUED:          0 USEFUL:          0 USELESS:          0
cpu0_STLB AVERAGE MISS LATENCY: 174.9 cycles

DRAM Statistics

Channel 0 RQ ROW_BUFFER_HIT:      56889
  ROW_BUFFER_MISS:     190567
 AVG DBUS CONGESTED CYCLE: 3.829
WQ ROW_BUFFER_HIT: Channel 0 
  ROW_BUFFER_MISS:      10135
  FULL:      15399

NOT_BRANCH: 0

BRANCH_DIRECT_JUMP: 30606209

BRANCH_INDIRECT: 10609449

BRANCH_CONDITIONAL: 158589385

BRANCH_DIRECT_CALL: 10602417

BRANCH_INDIRECT_CALL: 1233095

BRANCH_RETURN: 11835512

BRANCH_OTHER: 0
