WARNING: physical memory size is smaller than virtual memory size.

*** ChampSim Multicore Out-of-Order Simulator ***
Warmup Instructions: 1000000000
Simulation Instructions: 500000000
Number of CPUs: 1
Page size: 4096

Off-chip DRAM Size: 4 GiB Channels: 1 Width: 64-bit Data Race: 3200 MT/s
Heartbeat CPU 0 instructions: 10000000 cycles: 2500066 heartbeat IPC: 4 cumulative IPC: 4 (Simulation time: 00 hr 00 min 20 sec)
Heartbeat CPU 0 instructions: 20000000 cycles: 5000066 heartbeat IPC: 4 cumulative IPC: 4 (Simulation time: 00 hr 00 min 42 sec)
Heartbeat CPU 0 instructions: 30000000 cycles: 7500066 heartbeat IPC: 4 cumulative IPC: 4 (Simulation time: 00 hr 01 min 11 sec)
Heartbeat CPU 0 instructions: 40000000 cycles: 10000082 heartbeat IPC: 4 cumulative IPC: 4 (Simulation time: 00 hr 01 min 37 sec)
Heartbeat CPU 0 instructions: 50000002 cycles: 12500150 heartbeat IPC: 4 cumulative IPC: 4 (Simulation time: 00 hr 01 min 57 sec)
Heartbeat CPU 0 instructions: 60000000 cycles: 15000258 heartbeat IPC: 4 cumulative IPC: 4 (Simulation time: 00 hr 02 min 18 sec)
Heartbeat CPU 0 instructions: 70000000 cycles: 17500258 heartbeat IPC: 4 cumulative IPC: 4 (Simulation time: 00 hr 02 min 38 sec)
Heartbeat CPU 0 instructions: 80000000 cycles: 20000258 heartbeat IPC: 4 cumulative IPC: 4 (Simulation time: 00 hr 02 min 58 sec)
Heartbeat CPU 0 instructions: 90000003 cycles: 22500271 heartbeat IPC: 4 cumulative IPC: 4 (Simulation time: 00 hr 03 min 18 sec)
Heartbeat CPU 0 instructions: 100000001 cycles: 25000586 heartbeat IPC: 3.999 cumulative IPC: 4 (Simulation time: 00 hr 03 min 39 sec)
Heartbeat CPU 0 instructions: 110000001 cycles: 27500586 heartbeat IPC: 4 cumulative IPC: 4 (Simulation time: 00 hr 03 min 59 sec)
Heartbeat CPU 0 instructions: 120000001 cycles: 30000586 heartbeat IPC: 4 cumulative IPC: 4 (Simulation time: 00 hr 04 min 19 sec)
Heartbeat CPU 0 instructions: 130000003 cycles: 32500635 heartbeat IPC: 4 cumulative IPC: 4 (Simulation time: 00 hr 04 min 40 sec)
Heartbeat CPU 0 instructions: 140000001 cycles: 35000684 heartbeat IPC: 4 cumulative IPC: 4 (Simulation time: 00 hr 05 min 00 sec)
Heartbeat CPU 0 instructions: 150000001 cycles: 37500684 heartbeat IPC: 4 cumulative IPC: 4 (Simulation time: 00 hr 05 min 21 sec)
Heartbeat CPU 0 instructions: 160000001 cycles: 40000684 heartbeat IPC: 4 cumulative IPC: 4 (Simulation time: 00 hr 05 min 42 sec)
Heartbeat CPU 0 instructions: 170000000 cycles: 42501024 heartbeat IPC: 3.999 cumulative IPC: 4 (Simulation time: 00 hr 06 min 02 sec)
Heartbeat CPU 0 instructions: 180000000 cycles: 45001024 heartbeat IPC: 4 cumulative IPC: 4 (Simulation time: 00 hr 06 min 23 sec)
Heartbeat CPU 0 instructions: 190000000 cycles: 47501024 heartbeat IPC: 4 cumulative IPC: 4 (Simulation time: 00 hr 06 min 43 sec)
Heartbeat CPU 0 instructions: 200000000 cycles: 50001057 heartbeat IPC: 4 cumulative IPC: 4 (Simulation time: 00 hr 07 min 04 sec)
Heartbeat CPU 0 instructions: 210000000 cycles: 52501057 heartbeat IPC: 4 cumulative IPC: 4 (Simulation time: 00 hr 07 min 25 sec)
Heartbeat CPU 0 instructions: 220000000 cycles: 55001057 heartbeat IPC: 4 cumulative IPC: 4 (Simulation time: 00 hr 07 min 46 sec)
Heartbeat CPU 0 instructions: 230000000 cycles: 57501057 heartbeat IPC: 4 cumulative IPC: 4 (Simulation time: 00 hr 08 min 07 sec)
Heartbeat CPU 0 instructions: 240000000 cycles: 60001216 heartbeat IPC: 4 cumulative IPC: 4 (Simulation time: 00 hr 08 min 27 sec)
Heartbeat CPU 0 instructions: 250000003 cycles: 62501396 heartbeat IPC: 4 cumulative IPC: 4 (Simulation time: 00 hr 08 min 48 sec)
Heartbeat CPU 0 instructions: 260000003 cycles: 65001396 heartbeat IPC: 4 cumulative IPC: 4 (Simulation time: 00 hr 09 min 08 sec)
Heartbeat CPU 0 instructions: 270000003 cycles: 67501396 heartbeat IPC: 4 cumulative IPC: 4 (Simulation time: 00 hr 09 min 29 sec)
Heartbeat CPU 0 instructions: 280000003 cycles: 70001396 heartbeat IPC: 4 cumulative IPC: 4 (Simulation time: 00 hr 09 min 51 sec)
Heartbeat CPU 0 instructions: 290000003 cycles: 72501558 heartbeat IPC: 4 cumulative IPC: 4 (Simulation time: 00 hr 10 min 23 sec)
Heartbeat CPU 0 instructions: 300000003 cycles: 75001558 heartbeat IPC: 4 cumulative IPC: 4 (Simulation time: 00 hr 10 min 50 sec)
Heartbeat CPU 0 instructions: 310000002 cycles: 77501762 heartbeat IPC: 4 cumulative IPC: 4 (Simulation time: 00 hr 11 min 19 sec)
Heartbeat CPU 0 instructions: 320000003 cycles: 80002009 heartbeat IPC: 4 cumulative IPC: 4 (Simulation time: 00 hr 11 min 40 sec)
Heartbeat CPU 0 instructions: 330000002 cycles: 82504640 heartbeat IPC: 3.996 cumulative IPC: 4 (Simulation time: 00 hr 12 min 03 sec)
Heartbeat CPU 0 instructions: 340000000 cycles: 85004759 heartbeat IPC: 4 cumulative IPC: 4 (Simulation time: 00 hr 12 min 25 sec)
Heartbeat CPU 0 instructions: 350000000 cycles: 87504759 heartbeat IPC: 4 cumulative IPC: 4 (Simulation time: 00 hr 12 min 46 sec)
Heartbeat CPU 0 instructions: 360000001 cycles: 90012057 heartbeat IPC: 3.988 cumulative IPC: 3.999 (Simulation time: 00 hr 13 min 07 sec)
Heartbeat CPU 0 instructions: 370000001 cycles: 92512057 heartbeat IPC: 4 cumulative IPC: 3.999 (Simulation time: 00 hr 13 min 28 sec)
Heartbeat CPU 0 instructions: 380000002 cycles: 95012070 heartbeat IPC: 4 cumulative IPC: 3.999 (Simulation time: 00 hr 13 min 49 sec)
Heartbeat CPU 0 instructions: 390000003 cycles: 97512084 heartbeat IPC: 4 cumulative IPC: 4 (Simulation time: 00 hr 14 min 10 sec)
Heartbeat CPU 0 instructions: 400000003 cycles: 100012084 heartbeat IPC: 4 cumulative IPC: 4 (Simulation time: 00 hr 14 min 32 sec)
Heartbeat CPU 0 instructions: 410000003 cycles: 102512084 heartbeat IPC: 4 cumulative IPC: 4 (Simulation time: 00 hr 14 min 54 sec)
Heartbeat CPU 0 instructions: 420000003 cycles: 105012138 heartbeat IPC: 4 cumulative IPC: 4 (Simulation time: 00 hr 15 min 16 sec)
Heartbeat CPU 0 instructions: 430000001 cycles: 107512181 heartbeat IPC: 4 cumulative IPC: 4 (Simulation time: 00 hr 15 min 50 sec)
Heartbeat CPU 0 instructions: 440000003 cycles: 110019531 heartbeat IPC: 3.988 cumulative IPC: 3.999 (Simulation time: 00 hr 16 min 22 sec)
Heartbeat CPU 0 instructions: 450000003 cycles: 112519531 heartbeat IPC: 4 cumulative IPC: 3.999 (Simulation time: 00 hr 16 min 50 sec)
Heartbeat CPU 0 instructions: 460000003 cycles: 115019531 heartbeat IPC: 4 cumulative IPC: 3.999 (Simulation time: 00 hr 17 min 27 sec)
Heartbeat CPU 0 instructions: 470000003 cycles: 117528830 heartbeat IPC: 3.985 cumulative IPC: 3.999 (Simulation time: 00 hr 18 min 04 sec)
Heartbeat CPU 0 instructions: 480000003 cycles: 120032762 heartbeat IPC: 3.994 cumulative IPC: 3.999 (Simulation time: 00 hr 18 min 42 sec)
Heartbeat CPU 0 instructions: 490000000 cycles: 122533024 heartbeat IPC: 4 cumulative IPC: 3.999 (Simulation time: 00 hr 19 min 08 sec)
Heartbeat CPU 0 instructions: 500000001 cycles: 125033172 heartbeat IPC: 4 cumulative IPC: 3.999 (Simulation time: 00 hr 19 min 46 sec)
Heartbeat CPU 0 instructions: 510000002 cycles: 127533631 heartbeat IPC: 3.999 cumulative IPC: 3.999 (Simulation time: 00 hr 20 min 15 sec)
Heartbeat CPU 0 instructions: 520000002 cycles: 130042869 heartbeat IPC: 3.985 cumulative IPC: 3.999 (Simulation time: 00 hr 20 min 51 sec)
Heartbeat CPU 0 instructions: 530000003 cycles: 132543238 heartbeat IPC: 3.999 cumulative IPC: 3.999 (Simulation time: 00 hr 21 min 32 sec)
Heartbeat CPU 0 instructions: 540000000 cycles: 135053993 heartbeat IPC: 3.983 cumulative IPC: 3.998 (Simulation time: 00 hr 22 min 12 sec)
Heartbeat CPU 0 instructions: 550000001 cycles: 137559002 heartbeat IPC: 3.992 cumulative IPC: 3.998 (Simulation time: 00 hr 22 min 43 sec)
Heartbeat CPU 0 instructions: 560000001 cycles: 140059002 heartbeat IPC: 4 cumulative IPC: 3.998 (Simulation time: 00 hr 23 min 19 sec)
Heartbeat CPU 0 instructions: 570000001 cycles: 142559002 heartbeat IPC: 4 cumulative IPC: 3.998 (Simulation time: 00 hr 23 min 56 sec)
Heartbeat CPU 0 instructions: 580000001 cycles: 145059002 heartbeat IPC: 4 cumulative IPC: 3.998 (Simulation time: 00 hr 24 min 34 sec)
Heartbeat CPU 0 instructions: 590000000 cycles: 147559799 heartbeat IPC: 3.999 cumulative IPC: 3.998 (Simulation time: 00 hr 25 min 11 sec)
Heartbeat CPU 0 instructions: 600000003 cycles: 150060593 heartbeat IPC: 3.999 cumulative IPC: 3.998 (Simulation time: 00 hr 25 min 50 sec)
Heartbeat CPU 0 instructions: 610000002 cycles: 152561682 heartbeat IPC: 3.998 cumulative IPC: 3.998 (Simulation time: 00 hr 26 min 20 sec)
Heartbeat CPU 0 instructions: 620000002 cycles: 155065364 heartbeat IPC: 3.994 cumulative IPC: 3.998 (Simulation time: 00 hr 26 min 42 sec)
Heartbeat CPU 0 instructions: 630000000 cycles: 157566774 heartbeat IPC: 3.998 cumulative IPC: 3.998 (Simulation time: 00 hr 27 min 04 sec)
Heartbeat CPU 0 instructions: 640000002 cycles: 160066918 heartbeat IPC: 4 cumulative IPC: 3.998 (Simulation time: 00 hr 27 min 25 sec)
Heartbeat CPU 0 instructions: 650000003 cycles: 162567295 heartbeat IPC: 3.999 cumulative IPC: 3.998 (Simulation time: 00 hr 27 min 51 sec)
Heartbeat CPU 0 instructions: 660000001 cycles: 165069789 heartbeat IPC: 3.996 cumulative IPC: 3.998 (Simulation time: 00 hr 28 min 13 sec)
Heartbeat CPU 0 instructions: 670000002 cycles: 167569904 heartbeat IPC: 4 cumulative IPC: 3.998 (Simulation time: 00 hr 28 min 45 sec)
Heartbeat CPU 0 instructions: 680000003 cycles: 170070087 heartbeat IPC: 4 cumulative IPC: 3.998 (Simulation time: 00 hr 29 min 21 sec)
Heartbeat CPU 0 instructions: 690000003 cycles: 172598605 heartbeat IPC: 3.955 cumulative IPC: 3.998 (Simulation time: 00 hr 29 min 43 sec)
Heartbeat CPU 0 instructions: 700000003 cycles: 175098605 heartbeat IPC: 4 cumulative IPC: 3.998 (Simulation time: 00 hr 30 min 03 sec)
Heartbeat CPU 0 instructions: 710000003 cycles: 177598829 heartbeat IPC: 4 cumulative IPC: 3.998 (Simulation time: 00 hr 30 min 24 sec)
Heartbeat CPU 0 instructions: 720000002 cycles: 180099033 heartbeat IPC: 4 cumulative IPC: 3.998 (Simulation time: 00 hr 30 min 45 sec)
Heartbeat CPU 0 instructions: 730000002 cycles: 182599033 heartbeat IPC: 4 cumulative IPC: 3.998 (Simulation time: 00 hr 31 min 14 sec)
Heartbeat CPU 0 instructions: 740000002 cycles: 185099033 heartbeat IPC: 4 cumulative IPC: 3.998 (Simulation time: 00 hr 31 min 52 sec)
Heartbeat CPU 0 instructions: 750000002 cycles: 187599484 heartbeat IPC: 3.999 cumulative IPC: 3.998 (Simulation time: 00 hr 32 min 16 sec)
Heartbeat CPU 0 instructions: 760000001 cycles: 190099922 heartbeat IPC: 3.999 cumulative IPC: 3.998 (Simulation time: 00 hr 32 min 40 sec)
Heartbeat CPU 0 instructions: 770000002 cycles: 192600056 heartbeat IPC: 4 cumulative IPC: 3.998 (Simulation time: 00 hr 33 min 02 sec)
Heartbeat CPU 0 instructions: 780000002 cycles: 195100056 heartbeat IPC: 4 cumulative IPC: 3.998 (Simulation time: 00 hr 33 min 23 sec)
Heartbeat CPU 0 instructions: 790000002 cycles: 197600470 heartbeat IPC: 3.999 cumulative IPC: 3.998 (Simulation time: 00 hr 33 min 45 sec)
Heartbeat CPU 0 instructions: 800000003 cycles: 200100778 heartbeat IPC: 4 cumulative IPC: 3.998 (Simulation time: 00 hr 34 min 09 sec)
Heartbeat CPU 0 instructions: 810000001 cycles: 202601542 heartbeat IPC: 3.999 cumulative IPC: 3.998 (Simulation time: 00 hr 34 min 36 sec)
Heartbeat CPU 0 instructions: 820000001 cycles: 205101542 heartbeat IPC: 4 cumulative IPC: 3.998 (Simulation time: 00 hr 35 min 07 sec)
Heartbeat CPU 0 instructions: 830000001 cycles: 207601542 heartbeat IPC: 4 cumulative IPC: 3.998 (Simulation time: 00 hr 35 min 33 sec)
Heartbeat CPU 0 instructions: 840000002 cycles: 210101750 heartbeat IPC: 4 cumulative IPC: 3.998 (Simulation time: 00 hr 36 min 10 sec)
Heartbeat CPU 0 instructions: 850000003 cycles: 212603229 heartbeat IPC: 3.998 cumulative IPC: 3.998 (Simulation time: 00 hr 36 min 48 sec)
Heartbeat CPU 0 instructions: 860000003 cycles: 215103229 heartbeat IPC: 4 cumulative IPC: 3.998 (Simulation time: 00 hr 37 min 12 sec)
Heartbeat CPU 0 instructions: 870000003 cycles: 217603229 heartbeat IPC: 4 cumulative IPC: 3.998 (Simulation time: 00 hr 37 min 49 sec)
Heartbeat CPU 0 instructions: 880000002 cycles: 220104082 heartbeat IPC: 3.999 cumulative IPC: 3.998 (Simulation time: 00 hr 38 min 25 sec)
Heartbeat CPU 0 instructions: 890000002 cycles: 222604082 heartbeat IPC: 4 cumulative IPC: 3.998 (Simulation time: 00 hr 38 min 54 sec)
Heartbeat CPU 0 instructions: 900000002 cycles: 225104332 heartbeat IPC: 4 cumulative IPC: 3.998 (Simulation time: 00 hr 39 min 16 sec)
Heartbeat CPU 0 instructions: 910000000 cycles: 227604728 heartbeat IPC: 3.999 cumulative IPC: 3.998 (Simulation time: 00 hr 39 min 38 sec)
Heartbeat CPU 0 instructions: 920000001 cycles: 230105145 heartbeat IPC: 3.999 cumulative IPC: 3.998 (Simulation time: 00 hr 40 min 04 sec)
Heartbeat CPU 0 instructions: 930000003 cycles: 232605402 heartbeat IPC: 4 cumulative IPC: 3.998 (Simulation time: 00 hr 40 min 37 sec)
Heartbeat CPU 0 instructions: 940000003 cycles: 235105402 heartbeat IPC: 4 cumulative IPC: 3.998 (Simulation time: 00 hr 41 min 03 sec)
Heartbeat CPU 0 instructions: 950000003 cycles: 237605759 heartbeat IPC: 3.999 cumulative IPC: 3.998 (Simulation time: 00 hr 41 min 24 sec)
Heartbeat CPU 0 instructions: 960000000 cycles: 240106571 heartbeat IPC: 3.999 cumulative IPC: 3.998 (Simulation time: 00 hr 41 min 51 sec)
Heartbeat CPU 0 instructions: 970000003 cycles: 242606634 heartbeat IPC: 4 cumulative IPC: 3.998 (Simulation time: 00 hr 42 min 23 sec)
Heartbeat CPU 0 instructions: 980000002 cycles: 245106638 heartbeat IPC: 4 cumulative IPC: 3.998 (Simulation time: 00 hr 42 min 50 sec)
Heartbeat CPU 0 instructions: 990000003 cycles: 247608200 heartbeat IPC: 3.998 cumulative IPC: 3.998 (Simulation time: 00 hr 43 min 11 sec)
Heartbeat CPU 0 instructions: 1000000003 cycles: 250108200 heartbeat IPC: 4 cumulative IPC: 3.998 (Simulation time: 00 hr 43 min 33 sec)
Warmup finished CPU 0 instructions: 1000000003 cycles: 250108201 cumulative IPC: 3.998 (Simulation time: 00 hr 43 min 33 sec)
Warmup complete CPU 0 instructions: 1000000003 cycles: 250108201 cumulative IPC: 3.998 (Simulation time: 00 hr 43 min 33 sec)
Heartbeat CPU 0 instructions: 1010000001 cycles: 253316787 heartbeat IPC: 3.117 cumulative IPC: 3.117 (Simulation time: 00 hr 44 min 00 sec)
Heartbeat CPU 0 instructions: 1020000003 cycles: 256283394 heartbeat IPC: 3.371 cumulative IPC: 3.239 (Simulation time: 00 hr 44 min 25 sec)
Heartbeat CPU 0 instructions: 1030000000 cycles: 259291026 heartbeat IPC: 3.325 cumulative IPC: 3.267 (Simulation time: 00 hr 44 min 50 sec)
Heartbeat CPU 0 instructions: 1040000000 cycles: 262284770 heartbeat IPC: 3.34 cumulative IPC: 3.285 (Simulation time: 00 hr 45 min 15 sec)
Heartbeat CPU 0 instructions: 1050000000 cycles: 265253310 heartbeat IPC: 3.369 cumulative IPC: 3.301 (Simulation time: 00 hr 45 min 52 sec)
Heartbeat CPU 0 instructions: 1060000001 cycles: 268282168 heartbeat IPC: 3.302 cumulative IPC: 3.301 (Simulation time: 00 hr 46 min 38 sec)
Heartbeat CPU 0 instructions: 1070000000 cycles: 271421699 heartbeat IPC: 3.185 cumulative IPC: 3.284 (Simulation time: 00 hr 47 min 19 sec)
Heartbeat CPU 0 instructions: 1080000003 cycles: 274472551 heartbeat IPC: 3.278 cumulative IPC: 3.283 (Simulation time: 00 hr 47 min 47 sec)
Heartbeat CPU 0 instructions: 1090000000 cycles: 277484142 heartbeat IPC: 3.321 cumulative IPC: 3.288 (Simulation time: 00 hr 48 min 24 sec)
Heartbeat CPU 0 instructions: 1100000000 cycles: 280556962 heartbeat IPC: 3.254 cumulative IPC: 3.284 (Simulation time: 00 hr 49 min 02 sec)
Heartbeat CPU 0 instructions: 1110000004 cycles: 283580720 heartbeat IPC: 3.307 cumulative IPC: 3.286 (Simulation time: 00 hr 49 min 29 sec)
Heartbeat CPU 0 instructions: 1120000000 cycles: 286604608 heartbeat IPC: 3.307 cumulative IPC: 3.288 (Simulation time: 00 hr 49 min 56 sec)
Heartbeat CPU 0 instructions: 1130000002 cycles: 289649811 heartbeat IPC: 3.284 cumulative IPC: 3.288 (Simulation time: 00 hr 50 min 24 sec)
Heartbeat CPU 0 instructions: 1140000002 cycles: 292785032 heartbeat IPC: 3.19 cumulative IPC: 3.28 (Simulation time: 00 hr 51 min 08 sec)
Heartbeat CPU 0 instructions: 1150000000 cycles: 295798201 heartbeat IPC: 3.319 cumulative IPC: 3.283 (Simulation time: 00 hr 51 min 52 sec)
Heartbeat CPU 0 instructions: 1160000000 cycles: 298843582 heartbeat IPC: 3.284 cumulative IPC: 3.283 (Simulation time: 00 hr 52 min 27 sec)
Heartbeat CPU 0 instructions: 1170000004 cycles: 301895293 heartbeat IPC: 3.277 cumulative IPC: 3.283 (Simulation time: 00 hr 52 min 53 sec)
Heartbeat CPU 0 instructions: 1180000004 cycles: 304979960 heartbeat IPC: 3.242 cumulative IPC: 3.28 (Simulation time: 00 hr 53 min 30 sec)
Heartbeat CPU 0 instructions: 1190000004 cycles: 308092580 heartbeat IPC: 3.213 cumulative IPC: 3.277 (Simulation time: 00 hr 53 min 58 sec)
Heartbeat CPU 0 instructions: 1200000000 cycles: 311062247 heartbeat IPC: 3.367 cumulative IPC: 3.281 (Simulation time: 00 hr 54 min 25 sec)
Heartbeat CPU 0 instructions: 1210000003 cycles: 314072719 heartbeat IPC: 3.322 cumulative IPC: 3.283 (Simulation time: 00 hr 55 min 00 sec)
Heartbeat CPU 0 instructions: 1220000002 cycles: 318562158 heartbeat IPC: 2.227 cumulative IPC: 3.214 (Simulation time: 00 hr 55 min 38 sec)
Heartbeat CPU 0 instructions: 1230000003 cycles: 323612115 heartbeat IPC: 1.98 cumulative IPC: 3.129 (Simulation time: 00 hr 56 min 13 sec)
Heartbeat CPU 0 instructions: 1240000000 cycles: 330131788 heartbeat IPC: 1.534 cumulative IPC: 2.999 (Simulation time: 00 hr 57 min 08 sec)
Heartbeat CPU 0 instructions: 1250000002 cycles: 336768007 heartbeat IPC: 1.507 cumulative IPC: 2.885 (Simulation time: 00 hr 58 min 18 sec)
Heartbeat CPU 0 instructions: 1260000002 cycles: 340159997 heartbeat IPC: 2.948 cumulative IPC: 2.887 (Simulation time: 00 hr 59 min 05 sec)
Heartbeat CPU 0 instructions: 1270000003 cycles: 343428901 heartbeat IPC: 3.059 cumulative IPC: 2.893 (Simulation time: 00 hr 59 min 50 sec)
Heartbeat CPU 0 instructions: 1280000001 cycles: 346866342 heartbeat IPC: 2.909 cumulative IPC: 2.894 (Simulation time: 01 hr 00 min 32 sec)
Heartbeat CPU 0 instructions: 1290000002 cycles: 350177608 heartbeat IPC: 3.02 cumulative IPC: 2.898 (Simulation time: 01 hr 01 min 19 sec)
Heartbeat CPU 0 instructions: 1300000001 cycles: 353530917 heartbeat IPC: 2.982 cumulative IPC: 2.901 (Simulation time: 01 hr 02 min 04 sec)
Heartbeat CPU 0 instructions: 1310000000 cycles: 356955588 heartbeat IPC: 2.92 cumulative IPC: 2.901 (Simulation time: 01 hr 02 min 53 sec)
Heartbeat CPU 0 instructions: 1320000002 cycles: 364132214 heartbeat IPC: 1.393 cumulative IPC: 2.806 (Simulation time: 01 hr 04 min 09 sec)
Heartbeat CPU 0 instructions: 1330000002 cycles: 371544419 heartbeat IPC: 1.349 cumulative IPC: 2.717 (Simulation time: 01 hr 05 min 27 sec)
Heartbeat CPU 0 instructions: 1340000003 cycles: 377725525 heartbeat IPC: 1.618 cumulative IPC: 2.664 (Simulation time: 01 hr 06 min 36 sec)
Heartbeat CPU 0 instructions: 1350000001 cycles: 381253705 heartbeat IPC: 2.834 cumulative IPC: 2.669 (Simulation time: 01 hr 07 min 26 sec)
Heartbeat CPU 0 instructions: 1360000001 cycles: 384815388 heartbeat IPC: 2.808 cumulative IPC: 2.672 (Simulation time: 01 hr 08 min 18 sec)
Heartbeat CPU 0 instructions: 1370000002 cycles: 388364307 heartbeat IPC: 2.818 cumulative IPC: 2.676 (Simulation time: 01 hr 09 min 08 sec)
Heartbeat CPU 0 instructions: 1380000000 cycles: 395550275 heartbeat IPC: 1.392 cumulative IPC: 2.613 (Simulation time: 01 hr 10 min 28 sec)
Heartbeat CPU 0 instructions: 1390000003 cycles: 403060380 heartbeat IPC: 1.332 cumulative IPC: 2.55 (Simulation time: 01 hr 11 min 47 sec)
Heartbeat CPU 0 instructions: 1400000001 cycles: 408445293 heartbeat IPC: 1.857 cumulative IPC: 2.526 (Simulation time: 01 hr 12 min 50 sec)
Heartbeat CPU 0 instructions: 1410000003 cycles: 411636805 heartbeat IPC: 3.133 cumulative IPC: 2.538 (Simulation time: 01 hr 13 min 37 sec)
Heartbeat CPU 0 instructions: 1420000002 cycles: 414827952 heartbeat IPC: 3.134 cumulative IPC: 2.55 (Simulation time: 01 hr 14 min 24 sec)
Heartbeat CPU 0 instructions: 1430000001 cycles: 417958526 heartbeat IPC: 3.194 cumulative IPC: 2.562 (Simulation time: 01 hr 15 min 11 sec)
Heartbeat CPU 0 instructions: 1440000004 cycles: 421067843 heartbeat IPC: 3.216 cumulative IPC: 2.574 (Simulation time: 01 hr 15 min 58 sec)
Heartbeat CPU 0 instructions: 1450000000 cycles: 424296938 heartbeat IPC: 3.097 cumulative IPC: 2.583 (Simulation time: 01 hr 16 min 45 sec)
Heartbeat CPU 0 instructions: 1460000000 cycles: 427466866 heartbeat IPC: 3.155 cumulative IPC: 2.594 (Simulation time: 01 hr 17 min 29 sec)
Heartbeat CPU 0 instructions: 1470000004 cycles: 430716910 heartbeat IPC: 3.077 cumulative IPC: 2.602 (Simulation time: 01 hr 18 min 16 sec)
Heartbeat CPU 0 instructions: 1480000002 cycles: 433845499 heartbeat IPC: 3.196 cumulative IPC: 2.612 (Simulation time: 01 hr 19 min 02 sec)
Heartbeat CPU 0 instructions: 1490000002 cycles: 436903786 heartbeat IPC: 3.27 cumulative IPC: 2.623 (Simulation time: 01 hr 19 min 47 sec)
Heartbeat CPU 0 instructions: 1500000002 cycles: 440058540 heartbeat IPC: 3.17 cumulative IPC: 2.632 (Simulation time: 01 hr 20 min 33 sec)
Simulation finished CPU 0 instructions: 500000000 cycles: 189950341 cumulative IPC: 2.632 (Simulation time: 01 hr 20 min 33 sec)
Simulation complete CPU 0 instructions: 500000000 cycles: 189950341 cumulative IPC: 2.632 (Simulation time: 01 hr 20 min 33 sec)

ChampSim completed all CPUs

=== Simulation ===
CPU 0 runs traces/600.perlbench_s-210B.champsimtrace.xz
Region of Interest Statistics

CPU 0 cumulative IPC: 2.632 instructions: 500000000 cycles: 189950341
CPU 0 Branch Prediction Accuracy: 97.14% MPKI: 4.293 Average ROB Occupancy at Mispredict: 65.27
Branch type MPKI
BRANCH_DIRECT_JUMP: 0.0578
BRANCH_INDIRECT: 0.296
BRANCH_CONDITIONAL: 3.76
BRANCH_DIRECT_CALL: 0.0136
BRANCH_INDIRECT_CALL: 0.154
BRANCH_RETURN: 0.0117

LLC TOTAL        ACCESS:     352796 HIT:     105143 MISS:     247653
LLC LOAD         ACCESS:     283408 HIT:      61648 MISS:     221760
LLC RFO          ACCESS:      16647 HIT:       5018 MISS:      11629
LLC PREFETCH     ACCESS:          0 HIT:          0 MISS:          0
LLC WRITE        ACCESS:      35376 HIT:      35181 MISS:        195
LLC TRANSLATION  ACCESS:      17365 HIT:       3296 MISS:      14069
LLC PREFETCH REQUESTED:          0 ISSUED:          0 USEFUL:          0 USELESS:          0
LLC AVERAGE MISS LATENCY: 186.9 cycles
cpu0_DTLB TOTAL        ACCESS:  118474522 HIT:  117675823 MISS:     798699
cpu0_DTLB LOAD         ACCESS:  118474522 HIT:  117675823 MISS:     798699
cpu0_DTLB RFO          ACCESS:          0 HIT:          0 MISS:          0
cpu0_DTLB PREFETCH     ACCESS:          0 HIT:          0 MISS:          0
cpu0_DTLB WRITE        ACCESS:          0 HIT:          0 MISS:          0
cpu0_DTLB TRANSLATION  ACCESS:          0 HIT:          0 MISS:          0
cpu0_DTLB PREFETCH REQUESTED:          0 ISSUED:          0 USEFUL:          0 USELESS:          0
cpu0_DTLB AVERAGE MISS LATENCY: 9.192 cycles
cpu0_ITLB TOTAL        ACCESS:    6549842 HIT:    6376290 MISS:     173552
cpu0_ITLB LOAD         ACCESS:    6549842 HIT:    6376290 MISS:     173552
cpu0_ITLB RFO          ACCESS:          0 HIT:          0 MISS:          0
cpu0_ITLB PREFETCH     ACCESS:          0 HIT:          0 MISS:          0
cpu0_ITLB WRITE        ACCESS:          0 HIT:          0 MISS:          0
cpu0_ITLB TRANSLATION  ACCESS:          0 HIT:          0 MISS:          0
cpu0_ITLB PREFETCH REQUESTED:          0 ISSUED:          0 USEFUL:          0 USELESS:          0
cpu0_ITLB AVERAGE MISS LATENCY: 2.324 cycles
cpu0_L1D TOTAL        ACCESS:  169953983 HIT:  168858044 MISS:    1095939
cpu0_L1D LOAD         ACCESS:   67477279 HIT:   66563793 MISS:     913486
cpu0_L1D RFO          ACCESS:          0 HIT:          0 MISS:          0
cpu0_L1D PREFETCH     ACCESS:          0 HIT:          0 MISS:          0
cpu0_L1D WRITE        ACCESS:  102449912 HIT:  102291990 MISS:     157922
cpu0_L1D TRANSLATION  ACCESS:      26792 HIT:       2261 MISS:      24531
cpu0_L1D PREFETCH REQUESTED:          0 ISSUED:          0 USEFUL:          0 USELESS:          0
cpu0_L1D AVERAGE MISS LATENCY: 48.9 cycles
cpu0_L1I TOTAL        ACCESS:    7309982 HIT:    6197678 MISS:    1112304
cpu0_L1I LOAD         ACCESS:    7309982 HIT:    6197678 MISS:    1112304
cpu0_L1I RFO          ACCESS:          0 HIT:          0 MISS:          0
cpu0_L1I PREFETCH     ACCESS:          0 HIT:          0 MISS:          0
cpu0_L1I WRITE        ACCESS:          0 HIT:          0 MISS:          0
cpu0_L1I TRANSLATION  ACCESS:          0 HIT:          0 MISS:          0
cpu0_L1I PREFETCH REQUESTED:          0 ISSUED:          0 USEFUL:          0 USELESS:          0
cpu0_L1I AVERAGE MISS LATENCY: 9.666 cycles
cpu0_L2C TOTAL        ACCESS:    1563361 HIT:    1245605 MISS:     317756
cpu0_L2C LOAD         ACCESS:    1387044 HIT:    1103636 MISS:     283408
cpu0_L2C RFO          ACCESS:      49100 HIT:      32453 MISS:      16647
cpu0_L2C PREFETCH     ACCESS:          0 HIT:          0 MISS:          0
cpu0_L2C WRITE        ACCESS:     102746 HIT:     102410 MISS:        336
cpu0_L2C TRANSLATION  ACCESS:      24471 HIT:       7106 MISS:      17365
cpu0_L2C PREFETCH REQUESTED:          0 ISSUED:          0 USEFUL:          0 USELESS:          0
cpu0_L2C AVERAGE MISS LATENCY: 166.4 cycles
cpu0_STLB TOTAL        ACCESS:     626590 HIT:     603100 MISS:      23490
cpu0_STLB LOAD         ACCESS:     626590 HIT:     603100 MISS:      23490
cpu0_STLB RFO          ACCESS:          0 HIT:          0 MISS:          0
cpu0_STLB PREFETCH     ACCESS:          0 HIT:          0 MISS:          0
cpu0_STLB WRITE        ACCESS:          0 HIT:          0 MISS:          0
cpu0_STLB TRANSLATION  ACCESS:          0 HIT:          0 MISS:          0
cpu0_STLB PREFETCH REQUESTED:          0 ISSUED:          0 USEFUL:          0 USELESS:          0
cpu0_STLB AVERAGE MISS LATENCY: 161.1 cycles

DRAM Statistics

Channel 0 RQ ROW_BUFFER_HIT:      58855
  ROW_BUFFER_MISS:     188600
 AVG DBUS CONGESTED CYCLE: 3.785
WQ ROW_BUFFER_HIT: Channel 0 
  ROW_BUFFER_MISS:      12346
  FULL:      12728
