WARNING: physical memory size is smaller than virtual memory size.

*** ChampSim Multicore Out-of-Order Simulator ***
Warmup Instructions: 1000000000
Simulation Instructions: 500000000
Number of CPUs: 1
Page size: 4096

Off-chip DRAM Size: 4 GiB Channels: 1 Width: 64-bit Data Race: 3200 MT/s
Heartbeat CPU 0 instructions: 10000000 cycles: 2500066 heartbeat IPC: 4 cumulative IPC: 4 (Simulation time: 00 hr 00 min 26 sec)
Heartbeat CPU 0 instructions: 20000000 cycles: 5000066 heartbeat IPC: 4 cumulative IPC: 4 (Simulation time: 00 hr 01 min 01 sec)
Heartbeat CPU 0 instructions: 30000000 cycles: 7500066 heartbeat IPC: 4 cumulative IPC: 4 (Simulation time: 00 hr 01 min 23 sec)
Heartbeat CPU 0 instructions: 40000000 cycles: 10000066 heartbeat IPC: 4 cumulative IPC: 4 (Simulation time: 00 hr 02 min 00 sec)
Heartbeat CPU 0 instructions: 50000002 cycles: 12500108 heartbeat IPC: 4 cumulative IPC: 4 (Simulation time: 00 hr 02 min 37 sec)
Heartbeat CPU 0 instructions: 60000000 cycles: 15000213 heartbeat IPC: 4 cumulative IPC: 4 (Simulation time: 00 hr 03 min 15 sec)
Heartbeat CPU 0 instructions: 70000000 cycles: 17500213 heartbeat IPC: 4 cumulative IPC: 4 (Simulation time: 00 hr 03 min 52 sec)
Heartbeat CPU 0 instructions: 80000000 cycles: 20000213 heartbeat IPC: 4 cumulative IPC: 4 (Simulation time: 00 hr 04 min 29 sec)
Heartbeat CPU 0 instructions: 90000000 cycles: 22500213 heartbeat IPC: 4 cumulative IPC: 4 (Simulation time: 00 hr 05 min 06 sec)
Heartbeat CPU 0 instructions: 100000001 cycles: 25000529 heartbeat IPC: 3.999 cumulative IPC: 4 (Simulation time: 00 hr 05 min 44 sec)
Heartbeat CPU 0 instructions: 110000001 cycles: 27500529 heartbeat IPC: 4 cumulative IPC: 4 (Simulation time: 00 hr 06 min 21 sec)
Heartbeat CPU 0 instructions: 120000001 cycles: 30000529 heartbeat IPC: 4 cumulative IPC: 4 (Simulation time: 00 hr 06 min 58 sec)
Heartbeat CPU 0 instructions: 130000003 cycles: 32500576 heartbeat IPC: 4 cumulative IPC: 4 (Simulation time: 00 hr 07 min 36 sec)
Heartbeat CPU 0 instructions: 140000001 cycles: 35000623 heartbeat IPC: 4 cumulative IPC: 4 (Simulation time: 00 hr 08 min 13 sec)
Heartbeat CPU 0 instructions: 150000001 cycles: 37500623 heartbeat IPC: 4 cumulative IPC: 4 (Simulation time: 00 hr 08 min 50 sec)
Heartbeat CPU 0 instructions: 160000001 cycles: 40000623 heartbeat IPC: 4 cumulative IPC: 4 (Simulation time: 00 hr 09 min 28 sec)
Heartbeat CPU 0 instructions: 170000000 cycles: 42500954 heartbeat IPC: 3.999 cumulative IPC: 4 (Simulation time: 00 hr 10 min 05 sec)
Heartbeat CPU 0 instructions: 180000000 cycles: 45000954 heartbeat IPC: 4 cumulative IPC: 4 (Simulation time: 00 hr 10 min 44 sec)
Heartbeat CPU 0 instructions: 190000000 cycles: 47500954 heartbeat IPC: 4 cumulative IPC: 4 (Simulation time: 00 hr 11 min 21 sec)
Heartbeat CPU 0 instructions: 200000000 cycles: 50000984 heartbeat IPC: 4 cumulative IPC: 4 (Simulation time: 00 hr 11 min 53 sec)
Heartbeat CPU 0 instructions: 210000000 cycles: 52500984 heartbeat IPC: 4 cumulative IPC: 4 (Simulation time: 00 hr 12 min 18 sec)
Heartbeat CPU 0 instructions: 220000000 cycles: 55000984 heartbeat IPC: 4 cumulative IPC: 4 (Simulation time: 00 hr 12 min 46 sec)
Heartbeat CPU 0 instructions: 230000000 cycles: 57500984 heartbeat IPC: 4 cumulative IPC: 4 (Simulation time: 00 hr 13 min 12 sec)
Heartbeat CPU 0 instructions: 240000000 cycles: 60001143 heartbeat IPC: 4 cumulative IPC: 4 (Simulation time: 00 hr 13 min 33 sec)
Heartbeat CPU 0 instructions: 250000003 cycles: 62501322 heartbeat IPC: 4 cumulative IPC: 4 (Simulation time: 00 hr 13 min 54 sec)
Heartbeat CPU 0 instructions: 260000003 cycles: 65001322 heartbeat IPC: 4 cumulative IPC: 4 (Simulation time: 00 hr 14 min 21 sec)
Heartbeat CPU 0 instructions: 270000003 cycles: 67501322 heartbeat IPC: 4 cumulative IPC: 4 (Simulation time: 00 hr 14 min 59 sec)
Heartbeat CPU 0 instructions: 280000003 cycles: 70001322 heartbeat IPC: 4 cumulative IPC: 4 (Simulation time: 00 hr 15 min 37 sec)
Heartbeat CPU 0 instructions: 290000003 cycles: 72501462 heartbeat IPC: 4 cumulative IPC: 4 (Simulation time: 00 hr 16 min 16 sec)
Heartbeat CPU 0 instructions: 300000003 cycles: 75001462 heartbeat IPC: 4 cumulative IPC: 4 (Simulation time: 00 hr 16 min 54 sec)
Heartbeat CPU 0 instructions: 310000002 cycles: 77501655 heartbeat IPC: 4 cumulative IPC: 4 (Simulation time: 00 hr 17 min 20 sec)
Heartbeat CPU 0 instructions: 320000003 cycles: 80001903 heartbeat IPC: 4 cumulative IPC: 4 (Simulation time: 00 hr 17 min 57 sec)
Heartbeat CPU 0 instructions: 330000002 cycles: 82504534 heartbeat IPC: 3.996 cumulative IPC: 4 (Simulation time: 00 hr 18 min 35 sec)
Heartbeat CPU 0 instructions: 340000000 cycles: 85004653 heartbeat IPC: 4 cumulative IPC: 4 (Simulation time: 00 hr 19 min 00 sec)
Heartbeat CPU 0 instructions: 350000000 cycles: 87504653 heartbeat IPC: 4 cumulative IPC: 4 (Simulation time: 00 hr 19 min 34 sec)
Heartbeat CPU 0 instructions: 360000001 cycles: 90011939 heartbeat IPC: 3.988 cumulative IPC: 3.999 (Simulation time: 00 hr 19 min 55 sec)
Heartbeat CPU 0 instructions: 370000001 cycles: 92511939 heartbeat IPC: 4 cumulative IPC: 3.999 (Simulation time: 00 hr 20 min 15 sec)
Heartbeat CPU 0 instructions: 380000002 cycles: 95011952 heartbeat IPC: 4 cumulative IPC: 3.999 (Simulation time: 00 hr 20 min 35 sec)
Heartbeat CPU 0 instructions: 390000003 cycles: 97511966 heartbeat IPC: 4 cumulative IPC: 4 (Simulation time: 00 hr 21 min 00 sec)
Heartbeat CPU 0 instructions: 400000003 cycles: 100011966 heartbeat IPC: 4 cumulative IPC: 4 (Simulation time: 00 hr 21 min 38 sec)
Heartbeat CPU 0 instructions: 410000003 cycles: 102511966 heartbeat IPC: 4 cumulative IPC: 4 (Simulation time: 00 hr 22 min 15 sec)
Heartbeat CPU 0 instructions: 420000003 cycles: 105012017 heartbeat IPC: 4 cumulative IPC: 4 (Simulation time: 00 hr 22 min 53 sec)
Heartbeat CPU 0 instructions: 430000001 cycles: 107512059 heartbeat IPC: 4 cumulative IPC: 4 (Simulation time: 00 hr 23 min 31 sec)
Heartbeat CPU 0 instructions: 440000003 cycles: 110019379 heartbeat IPC: 3.988 cumulative IPC: 3.999 (Simulation time: 00 hr 24 min 10 sec)
Heartbeat CPU 0 instructions: 450000003 cycles: 112519379 heartbeat IPC: 4 cumulative IPC: 3.999 (Simulation time: 00 hr 24 min 48 sec)
Heartbeat CPU 0 instructions: 460000003 cycles: 115019379 heartbeat IPC: 4 cumulative IPC: 3.999 (Simulation time: 00 hr 25 min 27 sec)
Heartbeat CPU 0 instructions: 470000003 cycles: 117528549 heartbeat IPC: 3.985 cumulative IPC: 3.999 (Simulation time: 00 hr 26 min 06 sec)
Heartbeat CPU 0 instructions: 480000003 cycles: 120032445 heartbeat IPC: 3.994 cumulative IPC: 3.999 (Simulation time: 00 hr 26 min 45 sec)
Heartbeat CPU 0 instructions: 490000000 cycles: 122532706 heartbeat IPC: 4 cumulative IPC: 3.999 (Simulation time: 00 hr 27 min 24 sec)
Heartbeat CPU 0 instructions: 500000001 cycles: 125032854 heartbeat IPC: 4 cumulative IPC: 3.999 (Simulation time: 00 hr 28 min 03 sec)
Heartbeat CPU 0 instructions: 510000002 cycles: 127533313 heartbeat IPC: 3.999 cumulative IPC: 3.999 (Simulation time: 00 hr 28 min 43 sec)
Heartbeat CPU 0 instructions: 520000002 cycles: 130042576 heartbeat IPC: 3.985 cumulative IPC: 3.999 (Simulation time: 00 hr 29 min 25 sec)
Heartbeat CPU 0 instructions: 530000003 cycles: 132542945 heartbeat IPC: 3.999 cumulative IPC: 3.999 (Simulation time: 00 hr 30 min 07 sec)
Heartbeat CPU 0 instructions: 540000000 cycles: 135053687 heartbeat IPC: 3.983 cumulative IPC: 3.998 (Simulation time: 00 hr 30 min 48 sec)
Heartbeat CPU 0 instructions: 550000001 cycles: 137558710 heartbeat IPC: 3.992 cumulative IPC: 3.998 (Simulation time: 00 hr 31 min 28 sec)
Heartbeat CPU 0 instructions: 560000001 cycles: 140058710 heartbeat IPC: 4 cumulative IPC: 3.998 (Simulation time: 00 hr 32 min 07 sec)
Heartbeat CPU 0 instructions: 570000001 cycles: 142558710 heartbeat IPC: 4 cumulative IPC: 3.998 (Simulation time: 00 hr 32 min 46 sec)
Heartbeat CPU 0 instructions: 580000001 cycles: 145058710 heartbeat IPC: 4 cumulative IPC: 3.998 (Simulation time: 00 hr 33 min 24 sec)
Heartbeat CPU 0 instructions: 590000000 cycles: 147559507 heartbeat IPC: 3.999 cumulative IPC: 3.998 (Simulation time: 00 hr 34 min 03 sec)
Heartbeat CPU 0 instructions: 600000003 cycles: 150060259 heartbeat IPC: 3.999 cumulative IPC: 3.998 (Simulation time: 00 hr 34 min 43 sec)
Heartbeat CPU 0 instructions: 610000002 cycles: 152561369 heartbeat IPC: 3.998 cumulative IPC: 3.998 (Simulation time: 00 hr 35 min 23 sec)
Heartbeat CPU 0 instructions: 620000001 cycles: 155065051 heartbeat IPC: 3.994 cumulative IPC: 3.998 (Simulation time: 00 hr 36 min 04 sec)
Heartbeat CPU 0 instructions: 630000003 cycles: 157566467 heartbeat IPC: 3.998 cumulative IPC: 3.998 (Simulation time: 00 hr 36 min 43 sec)
Heartbeat CPU 0 instructions: 640000002 cycles: 160066613 heartbeat IPC: 4 cumulative IPC: 3.998 (Simulation time: 00 hr 37 min 23 sec)
Heartbeat CPU 0 instructions: 650000003 cycles: 162566998 heartbeat IPC: 3.999 cumulative IPC: 3.998 (Simulation time: 00 hr 38 min 04 sec)
Heartbeat CPU 0 instructions: 660000001 cycles: 165069506 heartbeat IPC: 3.996 cumulative IPC: 3.998 (Simulation time: 00 hr 38 min 44 sec)
Heartbeat CPU 0 instructions: 670000002 cycles: 167569623 heartbeat IPC: 4 cumulative IPC: 3.998 (Simulation time: 00 hr 39 min 23 sec)
Heartbeat CPU 0 instructions: 680000003 cycles: 170069820 heartbeat IPC: 4 cumulative IPC: 3.998 (Simulation time: 00 hr 39 min 48 sec)
Heartbeat CPU 0 instructions: 690000000 cycles: 172598341 heartbeat IPC: 3.955 cumulative IPC: 3.998 (Simulation time: 00 hr 40 min 10 sec)
Heartbeat CPU 0 instructions: 700000000 cycles: 175098341 heartbeat IPC: 4 cumulative IPC: 3.998 (Simulation time: 00 hr 40 min 30 sec)
Heartbeat CPU 0 instructions: 710000002 cycles: 177598545 heartbeat IPC: 4 cumulative IPC: 3.998 (Simulation time: 00 hr 40 min 51 sec)
Heartbeat CPU 0 instructions: 720000002 cycles: 180098719 heartbeat IPC: 4 cumulative IPC: 3.998 (Simulation time: 00 hr 41 min 11 sec)
Heartbeat CPU 0 instructions: 730000002 cycles: 182598719 heartbeat IPC: 4 cumulative IPC: 3.998 (Simulation time: 00 hr 41 min 31 sec)
Heartbeat CPU 0 instructions: 740000002 cycles: 185098719 heartbeat IPC: 4 cumulative IPC: 3.998 (Simulation time: 00 hr 41 min 52 sec)
Heartbeat CPU 0 instructions: 750000002 cycles: 187599161 heartbeat IPC: 3.999 cumulative IPC: 3.998 (Simulation time: 00 hr 42 min 13 sec)
Heartbeat CPU 0 instructions: 760000001 cycles: 190099557 heartbeat IPC: 3.999 cumulative IPC: 3.998 (Simulation time: 00 hr 42 min 33 sec)
Heartbeat CPU 0 instructions: 770000002 cycles: 192599684 heartbeat IPC: 4 cumulative IPC: 3.998 (Simulation time: 00 hr 42 min 54 sec)
Heartbeat CPU 0 instructions: 780000002 cycles: 195099684 heartbeat IPC: 4 cumulative IPC: 3.998 (Simulation time: 00 hr 43 min 14 sec)
Heartbeat CPU 0 instructions: 790000002 cycles: 197600051 heartbeat IPC: 3.999 cumulative IPC: 3.998 (Simulation time: 00 hr 43 min 34 sec)
Heartbeat CPU 0 instructions: 800000003 cycles: 200100357 heartbeat IPC: 4 cumulative IPC: 3.998 (Simulation time: 00 hr 43 min 55 sec)
Heartbeat CPU 0 instructions: 810000001 cycles: 202601107 heartbeat IPC: 3.999 cumulative IPC: 3.998 (Simulation time: 00 hr 44 min 16 sec)
Heartbeat CPU 0 instructions: 820000001 cycles: 205101107 heartbeat IPC: 4 cumulative IPC: 3.998 (Simulation time: 00 hr 44 min 36 sec)
Heartbeat CPU 0 instructions: 830000001 cycles: 207601107 heartbeat IPC: 4 cumulative IPC: 3.998 (Simulation time: 00 hr 44 min 57 sec)
Heartbeat CPU 0 instructions: 840000002 cycles: 210101285 heartbeat IPC: 4 cumulative IPC: 3.998 (Simulation time: 00 hr 45 min 17 sec)
Heartbeat CPU 0 instructions: 850000003 cycles: 212602763 heartbeat IPC: 3.998 cumulative IPC: 3.998 (Simulation time: 00 hr 45 min 38 sec)
Heartbeat CPU 0 instructions: 860000003 cycles: 215102763 heartbeat IPC: 4 cumulative IPC: 3.998 (Simulation time: 00 hr 45 min 58 sec)
Heartbeat CPU 0 instructions: 870000003 cycles: 217602763 heartbeat IPC: 4 cumulative IPC: 3.998 (Simulation time: 00 hr 46 min 19 sec)
Heartbeat CPU 0 instructions: 880000002 cycles: 220103614 heartbeat IPC: 3.999 cumulative IPC: 3.998 (Simulation time: 00 hr 46 min 43 sec)
Heartbeat CPU 0 instructions: 890000002 cycles: 222603614 heartbeat IPC: 4 cumulative IPC: 3.998 (Simulation time: 00 hr 47 min 11 sec)
Heartbeat CPU 0 instructions: 900000002 cycles: 225103862 heartbeat IPC: 4 cumulative IPC: 3.998 (Simulation time: 00 hr 47 min 32 sec)
Heartbeat CPU 0 instructions: 910000000 cycles: 227604256 heartbeat IPC: 3.999 cumulative IPC: 3.998 (Simulation time: 00 hr 47 min 52 sec)
Heartbeat CPU 0 instructions: 920000001 cycles: 230104651 heartbeat IPC: 3.999 cumulative IPC: 3.998 (Simulation time: 00 hr 48 min 13 sec)
Heartbeat CPU 0 instructions: 930000003 cycles: 232604904 heartbeat IPC: 4 cumulative IPC: 3.998 (Simulation time: 00 hr 48 min 34 sec)
Heartbeat CPU 0 instructions: 940000003 cycles: 235104904 heartbeat IPC: 4 cumulative IPC: 3.998 (Simulation time: 00 hr 49 min 02 sec)
Heartbeat CPU 0 instructions: 950000003 cycles: 237605251 heartbeat IPC: 3.999 cumulative IPC: 3.998 (Simulation time: 00 hr 49 min 39 sec)
Heartbeat CPU 0 instructions: 960000000 cycles: 240106019 heartbeat IPC: 3.999 cumulative IPC: 3.998 (Simulation time: 00 hr 50 min 16 sec)
Heartbeat CPU 0 instructions: 970000003 cycles: 242606069 heartbeat IPC: 4 cumulative IPC: 3.998 (Simulation time: 00 hr 50 min 53 sec)
Heartbeat CPU 0 instructions: 980000002 cycles: 245106073 heartbeat IPC: 4 cumulative IPC: 3.998 (Simulation time: 00 hr 51 min 30 sec)
Heartbeat CPU 0 instructions: 990000003 cycles: 247607590 heartbeat IPC: 3.998 cumulative IPC: 3.998 (Simulation time: 00 hr 52 min 07 sec)
Heartbeat CPU 0 instructions: 1000000003 cycles: 250107590 heartbeat IPC: 4 cumulative IPC: 3.998 (Simulation time: 00 hr 52 min 45 sec)
Warmup finished CPU 0 instructions: 1000000003 cycles: 250107591 cumulative IPC: 3.998 (Simulation time: 00 hr 52 min 45 sec)
Warmup complete CPU 0 instructions: 1000000003 cycles: 250107591 cumulative IPC: 3.998 (Simulation time: 00 hr 52 min 45 sec)
Heartbeat CPU 0 instructions: 1010000001 cycles: 253067297 heartbeat IPC: 3.379 cumulative IPC: 3.379 (Simulation time: 00 hr 53 min 29 sec)
Heartbeat CPU 0 instructions: 1020000003 cycles: 255959201 heartbeat IPC: 3.458 cumulative IPC: 3.418 (Simulation time: 00 hr 54 min 13 sec)
Heartbeat CPU 0 instructions: 1030000000 cycles: 258932987 heartbeat IPC: 3.363 cumulative IPC: 3.399 (Simulation time: 00 hr 54 min 49 sec)
Heartbeat CPU 0 instructions: 1040000000 cycles: 261897439 heartbeat IPC: 3.373 cumulative IPC: 3.393 (Simulation time: 00 hr 55 min 19 sec)
Heartbeat CPU 0 instructions: 1050000000 cycles: 264778577 heartbeat IPC: 3.471 cumulative IPC: 3.408 (Simulation time: 00 hr 56 min 03 sec)
Heartbeat CPU 0 instructions: 1060000001 cycles: 267736127 heartbeat IPC: 3.381 cumulative IPC: 3.404 (Simulation time: 00 hr 56 min 47 sec)
Heartbeat CPU 0 instructions: 1070000000 cycles: 270778591 heartbeat IPC: 3.287 cumulative IPC: 3.386 (Simulation time: 00 hr 57 min 32 sec)
Heartbeat CPU 0 instructions: 1080000003 cycles: 273720059 heartbeat IPC: 3.4 cumulative IPC: 3.388 (Simulation time: 00 hr 58 min 14 sec)
Heartbeat CPU 0 instructions: 1090000000 cycles: 276654302 heartbeat IPC: 3.408 cumulative IPC: 3.39 (Simulation time: 00 hr 58 min 39 sec)
Heartbeat CPU 0 instructions: 1100000000 cycles: 279739227 heartbeat IPC: 3.242 cumulative IPC: 3.375 (Simulation time: 00 hr 59 min 04 sec)
Heartbeat CPU 0 instructions: 1110000004 cycles: 282683331 heartbeat IPC: 3.397 cumulative IPC: 3.377 (Simulation time: 00 hr 59 min 29 sec)
Heartbeat CPU 0 instructions: 1120000000 cycles: 285563839 heartbeat IPC: 3.472 cumulative IPC: 3.384 (Simulation time: 01 hr 00 min 05 sec)
Heartbeat CPU 0 instructions: 1130000002 cycles: 288194814 heartbeat IPC: 3.801 cumulative IPC: 3.413 (Simulation time: 01 hr 00 min 47 sec)
Heartbeat CPU 0 instructions: 1140000002 cycles: 291266568 heartbeat IPC: 3.255 cumulative IPC: 3.401 (Simulation time: 01 hr 01 min 31 sec)
Heartbeat CPU 0 instructions: 1150000001 cycles: 294204037 heartbeat IPC: 3.404 cumulative IPC: 3.402 (Simulation time: 01 hr 02 min 07 sec)
Heartbeat CPU 0 instructions: 1160000000 cycles: 297094320 heartbeat IPC: 3.46 cumulative IPC: 3.405 (Simulation time: 01 hr 02 min 31 sec)
Heartbeat CPU 0 instructions: 1170000004 cycles: 299879901 heartbeat IPC: 3.59 cumulative IPC: 3.416 (Simulation time: 01 hr 02 min 56 sec)
Heartbeat CPU 0 instructions: 1180000004 cycles: 302951210 heartbeat IPC: 3.256 cumulative IPC: 3.406 (Simulation time: 01 hr 03 min 20 sec)
Heartbeat CPU 0 instructions: 1190000004 cycles: 305993071 heartbeat IPC: 3.287 cumulative IPC: 3.4 (Simulation time: 01 hr 03 min 45 sec)
Heartbeat CPU 0 instructions: 1200000000 cycles: 308740989 heartbeat IPC: 3.639 cumulative IPC: 3.411 (Simulation time: 01 hr 04 min 10 sec)
Heartbeat CPU 0 instructions: 1210000003 cycles: 311642625 heartbeat IPC: 3.446 cumulative IPC: 3.413 (Simulation time: 01 hr 04 min 38 sec)
Heartbeat CPU 0 instructions: 1220000001 cycles: 315567883 heartbeat IPC: 2.548 cumulative IPC: 3.361 (Simulation time: 01 hr 05 min 29 sec)
Heartbeat CPU 0 instructions: 1230000001 cycles: 319885195 heartbeat IPC: 2.316 cumulative IPC: 3.296 (Simulation time: 01 hr 06 min 23 sec)
Heartbeat CPU 0 instructions: 1240000000 cycles: 325101265 heartbeat IPC: 1.917 cumulative IPC: 3.2 (Simulation time: 01 hr 07 min 24 sec)
Heartbeat CPU 0 instructions: 1250000002 cycles: 330667822 heartbeat IPC: 1.796 cumulative IPC: 3.103 (Simulation time: 01 hr 08 min 25 sec)
Heartbeat CPU 0 instructions: 1260000002 cycles: 333819411 heartbeat IPC: 3.173 cumulative IPC: 3.106 (Simulation time: 01 hr 08 min 50 sec)
Heartbeat CPU 0 instructions: 1270000003 cycles: 336811257 heartbeat IPC: 3.342 cumulative IPC: 3.114 (Simulation time: 01 hr 09 min 15 sec)
Heartbeat CPU 0 instructions: 1280000001 cycles: 339966061 heartbeat IPC: 3.17 cumulative IPC: 3.116 (Simulation time: 01 hr 09 min 40 sec)
Heartbeat CPU 0 instructions: 1290000002 cycles: 343100602 heartbeat IPC: 3.19 cumulative IPC: 3.119 (Simulation time: 01 hr 10 min 05 sec)
Heartbeat CPU 0 instructions: 1300000001 cycles: 346231549 heartbeat IPC: 3.194 cumulative IPC: 3.121 (Simulation time: 01 hr 10 min 31 sec)
Heartbeat CPU 0 instructions: 1310000000 cycles: 349411633 heartbeat IPC: 3.145 cumulative IPC: 3.122 (Simulation time: 01 hr 10 min 56 sec)
Heartbeat CPU 0 instructions: 1320000003 cycles: 355226705 heartbeat IPC: 1.72 cumulative IPC: 3.044 (Simulation time: 01 hr 11 min 32 sec)
Heartbeat CPU 0 instructions: 1330000002 cycles: 361047152 heartbeat IPC: 1.718 cumulative IPC: 2.975 (Simulation time: 01 hr 12 min 08 sec)
Heartbeat CPU 0 instructions: 1340000003 cycles: 366235139 heartbeat IPC: 1.928 cumulative IPC: 2.928 (Simulation time: 01 hr 12 min 41 sec)
Heartbeat CPU 0 instructions: 1350000001 cycles: 369474336 heartbeat IPC: 3.087 cumulative IPC: 2.932 (Simulation time: 01 hr 13 min 07 sec)
Heartbeat CPU 0 instructions: 1360000001 cycles: 372778506 heartbeat IPC: 3.026 cumulative IPC: 2.935 (Simulation time: 01 hr 13 min 33 sec)
Heartbeat CPU 0 instructions: 1370000002 cycles: 376080392 heartbeat IPC: 3.029 cumulative IPC: 2.937 (Simulation time: 01 hr 13 min 59 sec)
Heartbeat CPU 0 instructions: 1380000000 cycles: 381908559 heartbeat IPC: 1.716 cumulative IPC: 2.883 (Simulation time: 01 hr 14 min 35 sec)
Heartbeat CPU 0 instructions: 1390000003 cycles: 387854595 heartbeat IPC: 1.682 cumulative IPC: 2.831 (Simulation time: 01 hr 15 min 12 sec)
Heartbeat CPU 0 instructions: 1400000001 cycles: 392533543 heartbeat IPC: 2.137 cumulative IPC: 2.808 (Simulation time: 01 hr 15 min 43 sec)
Heartbeat CPU 0 instructions: 1410000003 cycles: 395594885 heartbeat IPC: 3.267 cumulative IPC: 2.818 (Simulation time: 01 hr 16 min 07 sec)
Heartbeat CPU 0 instructions: 1420000002 cycles: 398551020 heartbeat IPC: 3.383 cumulative IPC: 2.829 (Simulation time: 01 hr 16 min 30 sec)
Heartbeat CPU 0 instructions: 1430000001 cycles: 401590729 heartbeat IPC: 3.29 cumulative IPC: 2.839 (Simulation time: 01 hr 16 min 54 sec)
Heartbeat CPU 0 instructions: 1440000002 cycles: 404491513 heartbeat IPC: 3.447 cumulative IPC: 2.85 (Simulation time: 01 hr 17 min 17 sec)
Heartbeat CPU 0 instructions: 1450000000 cycles: 407389680 heartbeat IPC: 3.45 cumulative IPC: 2.861 (Simulation time: 01 hr 17 min 40 sec)
Heartbeat CPU 0 instructions: 1460000000 cycles: 410403552 heartbeat IPC: 3.318 cumulative IPC: 2.87 (Simulation time: 01 hr 18 min 03 sec)
Heartbeat CPU 0 instructions: 1470000004 cycles: 413366796 heartbeat IPC: 3.375 cumulative IPC: 2.879 (Simulation time: 01 hr 18 min 26 sec)
Heartbeat CPU 0 instructions: 1480000002 cycles: 416316934 heartbeat IPC: 3.39 cumulative IPC: 2.888 (Simulation time: 01 hr 18 min 50 sec)
Heartbeat CPU 0 instructions: 1490000002 cycles: 419308909 heartbeat IPC: 3.342 cumulative IPC: 2.896 (Simulation time: 01 hr 19 min 13 sec)
Heartbeat CPU 0 instructions: 1500000001 cycles: 422335315 heartbeat IPC: 3.304 cumulative IPC: 2.903 (Simulation time: 01 hr 19 min 35 sec)
Simulation finished CPU 0 instructions: 500000003 cycles: 172227726 cumulative IPC: 2.903 (Simulation time: 01 hr 19 min 35 sec)
Simulation complete CPU 0 instructions: 500000003 cycles: 172227726 cumulative IPC: 2.903 (Simulation time: 01 hr 19 min 35 sec)

ChampSim completed all CPUs

=== Simulation ===
CPU 0 runs traces/600.perlbench_s-210B.champsimtrace.xz
Region of Interest Statistics

CPU 0 cumulative IPC: 2.903 instructions: 500000003 cycles: 172227726
CPU 0 Branch Prediction Accuracy: 98.12% MPKI: 2.829 Average ROB Occupancy at Mispredict: 87.76
Branch type MPKI
BRANCH_DIRECT_JUMP: 0.0578
BRANCH_INDIRECT: 0.296
BRANCH_CONDITIONAL: 2.3
BRANCH_DIRECT_CALL: 0.0136
BRANCH_INDIRECT_CALL: 0.154
BRANCH_RETURN: 0.0117

LLC TOTAL        ACCESS:     353125 HIT:     105502 MISS:     247623
LLC LOAD         ACCESS:     283017 HIT:      61157 MISS:     221860
LLC RFO          ACCESS:      16380 HIT:       4887 MISS:      11493
LLC PREFETCH     ACCESS:          0 HIT:          0 MISS:          0
LLC WRITE        ACCESS:      36250 HIT:      36068 MISS:        182
LLC TRANSLATION  ACCESS:      17478 HIT:       3390 MISS:      14088
LLC PREFETCH REQUESTED:          0 ISSUED:          0 USEFUL:          0 USELESS:          0
LLC AVERAGE MISS LATENCY: 212 cycles
cpu0_DTLB TOTAL        ACCESS:  115585571 HIT:  114755554 MISS:     830017
cpu0_DTLB LOAD         ACCESS:  115585571 HIT:  114755554 MISS:     830017
cpu0_DTLB RFO          ACCESS:          0 HIT:          0 MISS:          0
cpu0_DTLB PREFETCH     ACCESS:          0 HIT:          0 MISS:          0
cpu0_DTLB WRITE        ACCESS:          0 HIT:          0 MISS:          0
cpu0_DTLB TRANSLATION  ACCESS:          0 HIT:          0 MISS:          0
cpu0_DTLB PREFETCH REQUESTED:          0 ISSUED:          0 USEFUL:          0 USELESS:          0
cpu0_DTLB AVERAGE MISS LATENCY: 8.945 cycles
cpu0_ITLB TOTAL        ACCESS:    6563537 HIT:    6371181 MISS:     192356
cpu0_ITLB LOAD         ACCESS:    6563537 HIT:    6371181 MISS:     192356
cpu0_ITLB RFO          ACCESS:          0 HIT:          0 MISS:          0
cpu0_ITLB PREFETCH     ACCESS:          0 HIT:          0 MISS:          0
cpu0_ITLB WRITE        ACCESS:          0 HIT:          0 MISS:          0
cpu0_ITLB TRANSLATION  ACCESS:          0 HIT:          0 MISS:          0
cpu0_ITLB PREFETCH REQUESTED:          0 ISSUED:          0 USEFUL:          0 USELESS:          0
cpu0_ITLB AVERAGE MISS LATENCY: 1.935 cycles
cpu0_L1D TOTAL        ACCESS:  166282991 HIT:  165111021 MISS:    1171970
cpu0_L1D LOAD         ACCESS:   63619704 HIT:   62636096 MISS:     983608
cpu0_L1D RFO          ACCESS:          0 HIT:          0 MISS:          0
cpu0_L1D PREFETCH     ACCESS:          0 HIT:          0 MISS:          0
cpu0_L1D WRITE        ACCESS:  102636472 HIT:  102472661 MISS:     163811
cpu0_L1D TRANSLATION  ACCESS:      26815 HIT:       2264 MISS:      24551
cpu0_L1D PREFETCH REQUESTED:          0 ISSUED:          0 USEFUL:          0 USELESS:          0
cpu0_L1D AVERAGE MISS LATENCY: 48.6 cycles
cpu0_L1I TOTAL        ACCESS:    7342729 HIT:    6171551 MISS:    1171178
cpu0_L1I LOAD         ACCESS:    7342729 HIT:    6171551 MISS:    1171178
cpu0_L1I RFO          ACCESS:          0 HIT:          0 MISS:          0
cpu0_L1I PREFETCH     ACCESS:          0 HIT:          0 MISS:          0
cpu0_L1I WRITE        ACCESS:          0 HIT:          0 MISS:          0
cpu0_L1I TRANSLATION  ACCESS:          0 HIT:          0 MISS:          0
cpu0_L1I PREFETCH REQUESTED:          0 ISSUED:          0 USEFUL:          0 USELESS:          0
cpu0_L1I AVERAGE MISS LATENCY: 9.152 cycles
cpu0_L2C TOTAL        ACCESS:    1565885 HIT:    1248658 MISS:     317227
cpu0_L2C LOAD         ACCESS:    1387082 HIT:    1104065 MISS:     283017
cpu0_L2C RFO          ACCESS:      48895 HIT:      32515 MISS:      16380
cpu0_L2C PREFETCH     ACCESS:          0 HIT:          0 MISS:          0
cpu0_L2C WRITE        ACCESS:     105430 HIT:     105078 MISS:        352
cpu0_L2C TRANSLATION  ACCESS:      24478 HIT:       7000 MISS:      17478
cpu0_L2C PREFETCH REQUESTED:          0 ISSUED:          0 USEFUL:          0 USELESS:          0
cpu0_L2C AVERAGE MISS LATENCY: 186.2 cycles
cpu0_STLB TOTAL        ACCESS:     626759 HIT:     603272 MISS:      23487
cpu0_STLB LOAD         ACCESS:     626759 HIT:     603272 MISS:      23487
cpu0_STLB RFO          ACCESS:          0 HIT:          0 MISS:          0
cpu0_STLB PREFETCH     ACCESS:          0 HIT:          0 MISS:          0
cpu0_STLB WRITE        ACCESS:          0 HIT:          0 MISS:          0
cpu0_STLB TRANSLATION  ACCESS:          0 HIT:          0 MISS:          0
cpu0_STLB PREFETCH REQUESTED:          0 ISSUED:          0 USEFUL:          0 USELESS:          0
cpu0_STLB AVERAGE MISS LATENCY: 174.6 cycles

DRAM Statistics

Channel 0 RQ ROW_BUFFER_HIT:      56494
  ROW_BUFFER_MISS:     190937
 AVG DBUS CONGESTED CYCLE: 3.826
WQ ROW_BUFFER_HIT: Channel 0 
  ROW_BUFFER_MISS:      10545
  FULL:      15051

NOT_BRANCH: 0

BRANCH_DIRECT_JUMP: 30606209

BRANCH_INDIRECT: 10609449

BRANCH_CONDITIONAL: 158589385

BRANCH_DIRECT_CALL: 10602417

BRANCH_INDIRECT_CALL: 1233095

BRANCH_RETURN: 11835512

BRANCH_OTHER: 0
