WARNING: physical memory size is smaller than virtual memory size.

*** ChampSim Multicore Out-of-Order Simulator ***
Warmup Instructions: 1000000000
Simulation Instructions: 500000000
Number of CPUs: 1
Page size: 4096

Off-chip DRAM Size: 4 GiB Channels: 1 Width: 64-bit Data Race: 3200 MT/s
Heartbeat CPU 0 instructions: 10000000 cycles: 2500066 heartbeat IPC: 4 cumulative IPC: 4 (Simulation time: 00 hr 00 min 27 sec)
Heartbeat CPU 0 instructions: 20000000 cycles: 5000066 heartbeat IPC: 4 cumulative IPC: 4 (Simulation time: 00 hr 00 min 47 sec)
Heartbeat CPU 0 instructions: 30000000 cycles: 7500066 heartbeat IPC: 4 cumulative IPC: 4 (Simulation time: 00 hr 01 min 09 sec)
Heartbeat CPU 0 instructions: 40000000 cycles: 10000066 heartbeat IPC: 4 cumulative IPC: 4 (Simulation time: 00 hr 01 min 33 sec)
Heartbeat CPU 0 instructions: 50000002 cycles: 12500109 heartbeat IPC: 4 cumulative IPC: 4 (Simulation time: 00 hr 01 min 56 sec)
Heartbeat CPU 0 instructions: 60000000 cycles: 15000215 heartbeat IPC: 4 cumulative IPC: 4 (Simulation time: 00 hr 02 min 19 sec)
Heartbeat CPU 0 instructions: 70000000 cycles: 17500215 heartbeat IPC: 4 cumulative IPC: 4 (Simulation time: 00 hr 02 min 40 sec)
Heartbeat CPU 0 instructions: 80000000 cycles: 20000215 heartbeat IPC: 4 cumulative IPC: 4 (Simulation time: 00 hr 03 min 02 sec)
Heartbeat CPU 0 instructions: 90000000 cycles: 22500215 heartbeat IPC: 4 cumulative IPC: 4 (Simulation time: 00 hr 03 min 22 sec)
Heartbeat CPU 0 instructions: 100000001 cycles: 25000531 heartbeat IPC: 3.999 cumulative IPC: 4 (Simulation time: 00 hr 03 min 43 sec)
Heartbeat CPU 0 instructions: 110000001 cycles: 27500531 heartbeat IPC: 4 cumulative IPC: 4 (Simulation time: 00 hr 04 min 04 sec)
Heartbeat CPU 0 instructions: 120000001 cycles: 30000531 heartbeat IPC: 4 cumulative IPC: 4 (Simulation time: 00 hr 04 min 25 sec)
Heartbeat CPU 0 instructions: 130000003 cycles: 32500579 heartbeat IPC: 4 cumulative IPC: 4 (Simulation time: 00 hr 04 min 47 sec)
Heartbeat CPU 0 instructions: 140000001 cycles: 35000625 heartbeat IPC: 4 cumulative IPC: 4 (Simulation time: 00 hr 05 min 08 sec)
Heartbeat CPU 0 instructions: 150000001 cycles: 37500625 heartbeat IPC: 4 cumulative IPC: 4 (Simulation time: 00 hr 05 min 29 sec)
Heartbeat CPU 0 instructions: 160000001 cycles: 40000625 heartbeat IPC: 4 cumulative IPC: 4 (Simulation time: 00 hr 05 min 50 sec)
Heartbeat CPU 0 instructions: 170000000 cycles: 42500951 heartbeat IPC: 3.999 cumulative IPC: 4 (Simulation time: 00 hr 06 min 11 sec)
Heartbeat CPU 0 instructions: 180000000 cycles: 45000951 heartbeat IPC: 4 cumulative IPC: 4 (Simulation time: 00 hr 06 min 33 sec)
Heartbeat CPU 0 instructions: 190000000 cycles: 47500951 heartbeat IPC: 4 cumulative IPC: 4 (Simulation time: 00 hr 06 min 53 sec)
Heartbeat CPU 0 instructions: 200000000 cycles: 50000982 heartbeat IPC: 4 cumulative IPC: 4 (Simulation time: 00 hr 07 min 14 sec)
Heartbeat CPU 0 instructions: 210000000 cycles: 52500982 heartbeat IPC: 4 cumulative IPC: 4 (Simulation time: 00 hr 07 min 35 sec)
Heartbeat CPU 0 instructions: 220000000 cycles: 55000982 heartbeat IPC: 4 cumulative IPC: 4 (Simulation time: 00 hr 07 min 56 sec)
Heartbeat CPU 0 instructions: 230000000 cycles: 57500982 heartbeat IPC: 4 cumulative IPC: 4 (Simulation time: 00 hr 08 min 17 sec)
Heartbeat CPU 0 instructions: 240000000 cycles: 60001141 heartbeat IPC: 4 cumulative IPC: 4 (Simulation time: 00 hr 08 min 38 sec)
Heartbeat CPU 0 instructions: 250000003 cycles: 62501320 heartbeat IPC: 4 cumulative IPC: 4 (Simulation time: 00 hr 08 min 59 sec)
Heartbeat CPU 0 instructions: 260000003 cycles: 65001320 heartbeat IPC: 4 cumulative IPC: 4 (Simulation time: 00 hr 09 min 20 sec)
Heartbeat CPU 0 instructions: 270000003 cycles: 67501320 heartbeat IPC: 4 cumulative IPC: 4 (Simulation time: 00 hr 09 min 41 sec)
Heartbeat CPU 0 instructions: 280000003 cycles: 70001320 heartbeat IPC: 4 cumulative IPC: 4 (Simulation time: 00 hr 10 min 02 sec)
Heartbeat CPU 0 instructions: 290000003 cycles: 72501466 heartbeat IPC: 4 cumulative IPC: 4 (Simulation time: 00 hr 10 min 23 sec)
Heartbeat CPU 0 instructions: 300000003 cycles: 75001466 heartbeat IPC: 4 cumulative IPC: 4 (Simulation time: 00 hr 10 min 44 sec)
Heartbeat CPU 0 instructions: 310000002 cycles: 77501659 heartbeat IPC: 4 cumulative IPC: 4 (Simulation time: 00 hr 11 min 05 sec)
Heartbeat CPU 0 instructions: 320000003 cycles: 80001907 heartbeat IPC: 4 cumulative IPC: 4 (Simulation time: 00 hr 11 min 26 sec)
Heartbeat CPU 0 instructions: 330000002 cycles: 82504538 heartbeat IPC: 3.996 cumulative IPC: 4 (Simulation time: 00 hr 11 min 47 sec)
Heartbeat CPU 0 instructions: 340000000 cycles: 85004657 heartbeat IPC: 4 cumulative IPC: 4 (Simulation time: 00 hr 12 min 08 sec)
Heartbeat CPU 0 instructions: 350000000 cycles: 87504657 heartbeat IPC: 4 cumulative IPC: 4 (Simulation time: 00 hr 12 min 29 sec)
Heartbeat CPU 0 instructions: 360000001 cycles: 90011962 heartbeat IPC: 3.988 cumulative IPC: 3.999 (Simulation time: 00 hr 12 min 50 sec)
Heartbeat CPU 0 instructions: 370000001 cycles: 92511962 heartbeat IPC: 4 cumulative IPC: 3.999 (Simulation time: 00 hr 13 min 11 sec)
Heartbeat CPU 0 instructions: 380000002 cycles: 95011975 heartbeat IPC: 4 cumulative IPC: 3.999 (Simulation time: 00 hr 13 min 32 sec)
Heartbeat CPU 0 instructions: 390000003 cycles: 97511989 heartbeat IPC: 4 cumulative IPC: 4 (Simulation time: 00 hr 13 min 53 sec)
Heartbeat CPU 0 instructions: 400000003 cycles: 100011989 heartbeat IPC: 4 cumulative IPC: 4 (Simulation time: 00 hr 14 min 13 sec)
Heartbeat CPU 0 instructions: 410000003 cycles: 102511989 heartbeat IPC: 4 cumulative IPC: 4 (Simulation time: 00 hr 14 min 35 sec)
Heartbeat CPU 0 instructions: 420000003 cycles: 105012041 heartbeat IPC: 4 cumulative IPC: 4 (Simulation time: 00 hr 14 min 57 sec)
Heartbeat CPU 0 instructions: 430000001 cycles: 107512082 heartbeat IPC: 4 cumulative IPC: 4 (Simulation time: 00 hr 15 min 18 sec)
Heartbeat CPU 0 instructions: 440000003 cycles: 110019424 heartbeat IPC: 3.988 cumulative IPC: 3.999 (Simulation time: 00 hr 15 min 40 sec)
Heartbeat CPU 0 instructions: 450000003 cycles: 112519424 heartbeat IPC: 4 cumulative IPC: 3.999 (Simulation time: 00 hr 16 min 01 sec)
Heartbeat CPU 0 instructions: 460000003 cycles: 115019424 heartbeat IPC: 4 cumulative IPC: 3.999 (Simulation time: 00 hr 16 min 22 sec)
Heartbeat CPU 0 instructions: 470000003 cycles: 117528737 heartbeat IPC: 3.985 cumulative IPC: 3.999 (Simulation time: 00 hr 16 min 44 sec)
Heartbeat CPU 0 instructions: 480000003 cycles: 120032603 heartbeat IPC: 3.994 cumulative IPC: 3.999 (Simulation time: 00 hr 17 min 05 sec)
Heartbeat CPU 0 instructions: 490000000 cycles: 122532864 heartbeat IPC: 4 cumulative IPC: 3.999 (Simulation time: 00 hr 17 min 28 sec)
Heartbeat CPU 0 instructions: 500000001 cycles: 125033012 heartbeat IPC: 4 cumulative IPC: 3.999 (Simulation time: 00 hr 17 min 51 sec)
Heartbeat CPU 0 instructions: 510000002 cycles: 127533471 heartbeat IPC: 3.999 cumulative IPC: 3.999 (Simulation time: 00 hr 18 min 13 sec)
Heartbeat CPU 0 instructions: 520000002 cycles: 130042729 heartbeat IPC: 3.985 cumulative IPC: 3.999 (Simulation time: 00 hr 18 min 36 sec)
Heartbeat CPU 0 instructions: 530000003 cycles: 132543098 heartbeat IPC: 3.999 cumulative IPC: 3.999 (Simulation time: 00 hr 18 min 59 sec)
Heartbeat CPU 0 instructions: 540000000 cycles: 135053837 heartbeat IPC: 3.983 cumulative IPC: 3.998 (Simulation time: 00 hr 19 min 21 sec)
Heartbeat CPU 0 instructions: 550000002 cycles: 137558809 heartbeat IPC: 3.992 cumulative IPC: 3.998 (Simulation time: 00 hr 19 min 43 sec)
Heartbeat CPU 0 instructions: 560000002 cycles: 140058809 heartbeat IPC: 4 cumulative IPC: 3.998 (Simulation time: 00 hr 20 min 04 sec)
Heartbeat CPU 0 instructions: 570000002 cycles: 142558809 heartbeat IPC: 4 cumulative IPC: 3.998 (Simulation time: 00 hr 20 min 26 sec)
Heartbeat CPU 0 instructions: 580000002 cycles: 145058809 heartbeat IPC: 4 cumulative IPC: 3.998 (Simulation time: 00 hr 20 min 47 sec)
Heartbeat CPU 0 instructions: 590000000 cycles: 147559607 heartbeat IPC: 3.999 cumulative IPC: 3.998 (Simulation time: 00 hr 21 min 08 sec)
Heartbeat CPU 0 instructions: 600000003 cycles: 150060356 heartbeat IPC: 3.999 cumulative IPC: 3.998 (Simulation time: 00 hr 21 min 30 sec)
Heartbeat CPU 0 instructions: 610000002 cycles: 152561451 heartbeat IPC: 3.998 cumulative IPC: 3.998 (Simulation time: 00 hr 21 min 52 sec)
Heartbeat CPU 0 instructions: 620000002 cycles: 155065074 heartbeat IPC: 3.994 cumulative IPC: 3.998 (Simulation time: 00 hr 22 min 14 sec)
Heartbeat CPU 0 instructions: 630000003 cycles: 157566490 heartbeat IPC: 3.998 cumulative IPC: 3.998 (Simulation time: 00 hr 22 min 36 sec)
Heartbeat CPU 0 instructions: 640000002 cycles: 160066633 heartbeat IPC: 4 cumulative IPC: 3.998 (Simulation time: 00 hr 22 min 58 sec)
Heartbeat CPU 0 instructions: 650000003 cycles: 162567011 heartbeat IPC: 3.999 cumulative IPC: 3.998 (Simulation time: 00 hr 23 min 21 sec)
Heartbeat CPU 0 instructions: 660000001 cycles: 165069479 heartbeat IPC: 3.996 cumulative IPC: 3.998 (Simulation time: 00 hr 23 min 43 sec)
Heartbeat CPU 0 instructions: 670000002 cycles: 167569596 heartbeat IPC: 4 cumulative IPC: 3.998 (Simulation time: 00 hr 24 min 04 sec)
Heartbeat CPU 0 instructions: 680000003 cycles: 170069789 heartbeat IPC: 4 cumulative IPC: 3.998 (Simulation time: 00 hr 24 min 27 sec)
Heartbeat CPU 0 instructions: 690000003 cycles: 172598120 heartbeat IPC: 3.955 cumulative IPC: 3.998 (Simulation time: 00 hr 24 min 49 sec)
Heartbeat CPU 0 instructions: 700000003 cycles: 175098120 heartbeat IPC: 4 cumulative IPC: 3.998 (Simulation time: 00 hr 25 min 10 sec)
Heartbeat CPU 0 instructions: 710000002 cycles: 177598322 heartbeat IPC: 4 cumulative IPC: 3.998 (Simulation time: 00 hr 25 min 31 sec)
Heartbeat CPU 0 instructions: 720000002 cycles: 180098498 heartbeat IPC: 4 cumulative IPC: 3.998 (Simulation time: 00 hr 25 min 51 sec)
Heartbeat CPU 0 instructions: 730000002 cycles: 182598498 heartbeat IPC: 4 cumulative IPC: 3.998 (Simulation time: 00 hr 26 min 12 sec)
Heartbeat CPU 0 instructions: 740000002 cycles: 185098498 heartbeat IPC: 4 cumulative IPC: 3.998 (Simulation time: 00 hr 26 min 33 sec)
Heartbeat CPU 0 instructions: 750000002 cycles: 187598935 heartbeat IPC: 3.999 cumulative IPC: 3.998 (Simulation time: 00 hr 26 min 54 sec)
Heartbeat CPU 0 instructions: 760000001 cycles: 190099327 heartbeat IPC: 3.999 cumulative IPC: 3.998 (Simulation time: 00 hr 27 min 15 sec)
Heartbeat CPU 0 instructions: 770000002 cycles: 192599453 heartbeat IPC: 4 cumulative IPC: 3.998 (Simulation time: 00 hr 27 min 36 sec)
Heartbeat CPU 0 instructions: 780000002 cycles: 195099453 heartbeat IPC: 4 cumulative IPC: 3.998 (Simulation time: 00 hr 27 min 56 sec)
Heartbeat CPU 0 instructions: 790000002 cycles: 197599820 heartbeat IPC: 3.999 cumulative IPC: 3.998 (Simulation time: 00 hr 28 min 17 sec)
Heartbeat CPU 0 instructions: 800000003 cycles: 200100126 heartbeat IPC: 4 cumulative IPC: 3.998 (Simulation time: 00 hr 28 min 38 sec)
Heartbeat CPU 0 instructions: 810000001 cycles: 202600877 heartbeat IPC: 3.999 cumulative IPC: 3.998 (Simulation time: 00 hr 28 min 59 sec)
Heartbeat CPU 0 instructions: 820000001 cycles: 205100877 heartbeat IPC: 4 cumulative IPC: 3.998 (Simulation time: 00 hr 29 min 20 sec)
Heartbeat CPU 0 instructions: 830000001 cycles: 207600877 heartbeat IPC: 4 cumulative IPC: 3.998 (Simulation time: 00 hr 29 min 47 sec)
Heartbeat CPU 0 instructions: 840000002 cycles: 210101056 heartbeat IPC: 4 cumulative IPC: 3.998 (Simulation time: 00 hr 30 min 10 sec)
Heartbeat CPU 0 instructions: 850000003 cycles: 212602534 heartbeat IPC: 3.998 cumulative IPC: 3.998 (Simulation time: 00 hr 30 min 34 sec)
Heartbeat CPU 0 instructions: 860000003 cycles: 215102534 heartbeat IPC: 4 cumulative IPC: 3.998 (Simulation time: 00 hr 30 min 56 sec)
Heartbeat CPU 0 instructions: 870000003 cycles: 217602534 heartbeat IPC: 4 cumulative IPC: 3.998 (Simulation time: 00 hr 31 min 17 sec)
Heartbeat CPU 0 instructions: 880000002 cycles: 220103383 heartbeat IPC: 3.999 cumulative IPC: 3.998 (Simulation time: 00 hr 31 min 38 sec)
Heartbeat CPU 0 instructions: 890000002 cycles: 222603383 heartbeat IPC: 4 cumulative IPC: 3.998 (Simulation time: 00 hr 32 min 02 sec)
Heartbeat CPU 0 instructions: 900000002 cycles: 225103632 heartbeat IPC: 4 cumulative IPC: 3.998 (Simulation time: 00 hr 32 min 25 sec)
Heartbeat CPU 0 instructions: 910000000 cycles: 227604026 heartbeat IPC: 3.999 cumulative IPC: 3.998 (Simulation time: 00 hr 32 min 46 sec)
Heartbeat CPU 0 instructions: 920000001 cycles: 230104419 heartbeat IPC: 3.999 cumulative IPC: 3.998 (Simulation time: 00 hr 33 min 08 sec)
Heartbeat CPU 0 instructions: 930000003 cycles: 232604672 heartbeat IPC: 4 cumulative IPC: 3.998 (Simulation time: 00 hr 33 min 29 sec)
Heartbeat CPU 0 instructions: 940000003 cycles: 235104672 heartbeat IPC: 4 cumulative IPC: 3.998 (Simulation time: 00 hr 33 min 51 sec)
Heartbeat CPU 0 instructions: 950000003 cycles: 237605019 heartbeat IPC: 3.999 cumulative IPC: 3.998 (Simulation time: 00 hr 34 min 12 sec)
Heartbeat CPU 0 instructions: 960000000 cycles: 240105787 heartbeat IPC: 3.999 cumulative IPC: 3.998 (Simulation time: 00 hr 34 min 33 sec)
Heartbeat CPU 0 instructions: 970000003 cycles: 242605838 heartbeat IPC: 4 cumulative IPC: 3.998 (Simulation time: 00 hr 34 min 54 sec)
Heartbeat CPU 0 instructions: 980000002 cycles: 245105842 heartbeat IPC: 4 cumulative IPC: 3.998 (Simulation time: 00 hr 35 min 16 sec)
Heartbeat CPU 0 instructions: 990000003 cycles: 247607360 heartbeat IPC: 3.998 cumulative IPC: 3.998 (Simulation time: 00 hr 35 min 37 sec)
Heartbeat CPU 0 instructions: 1000000003 cycles: 250107360 heartbeat IPC: 4 cumulative IPC: 3.998 (Simulation time: 00 hr 35 min 58 sec)
Warmup finished CPU 0 instructions: 1000000003 cycles: 250107361 cumulative IPC: 3.998 (Simulation time: 00 hr 35 min 58 sec)
Warmup complete CPU 0 instructions: 1000000003 cycles: 250107361 cumulative IPC: 3.998 (Simulation time: 00 hr 35 min 58 sec)
Heartbeat CPU 0 instructions: 1010000001 cycles: 253100421 heartbeat IPC: 3.341 cumulative IPC: 3.341 (Simulation time: 00 hr 36 min 24 sec)
Heartbeat CPU 0 instructions: 1020000003 cycles: 255983727 heartbeat IPC: 3.468 cumulative IPC: 3.403 (Simulation time: 00 hr 36 min 49 sec)
Heartbeat CPU 0 instructions: 1030000000 cycles: 258792420 heartbeat IPC: 3.56 cumulative IPC: 3.454 (Simulation time: 00 hr 37 min 14 sec)
Heartbeat CPU 0 instructions: 1040000000 cycles: 261636487 heartbeat IPC: 3.516 cumulative IPC: 3.469 (Simulation time: 00 hr 37 min 43 sec)
Heartbeat CPU 0 instructions: 1050000000 cycles: 264515196 heartbeat IPC: 3.474 cumulative IPC: 3.47 (Simulation time: 00 hr 38 min 11 sec)
Heartbeat CPU 0 instructions: 1060000001 cycles: 267469796 heartbeat IPC: 3.385 cumulative IPC: 3.456 (Simulation time: 00 hr 38 min 36 sec)
Heartbeat CPU 0 instructions: 1070000000 cycles: 270505935 heartbeat IPC: 3.294 cumulative IPC: 3.432 (Simulation time: 00 hr 39 min 02 sec)
Heartbeat CPU 0 instructions: 1080000003 cycles: 273422785 heartbeat IPC: 3.428 cumulative IPC: 3.431 (Simulation time: 00 hr 39 min 27 sec)
Heartbeat CPU 0 instructions: 1090000000 cycles: 276334394 heartbeat IPC: 3.435 cumulative IPC: 3.432 (Simulation time: 00 hr 39 min 52 sec)
Heartbeat CPU 0 instructions: 1100000000 cycles: 279128538 heartbeat IPC: 3.579 cumulative IPC: 3.446 (Simulation time: 00 hr 40 min 17 sec)
Heartbeat CPU 0 instructions: 1110000001 cycles: 282077281 heartbeat IPC: 3.391 cumulative IPC: 3.441 (Simulation time: 00 hr 40 min 42 sec)
Heartbeat CPU 0 instructions: 1120000000 cycles: 284938478 heartbeat IPC: 3.495 cumulative IPC: 3.445 (Simulation time: 00 hr 41 min 07 sec)
Heartbeat CPU 0 instructions: 1130000002 cycles: 287569379 heartbeat IPC: 3.801 cumulative IPC: 3.47 (Simulation time: 00 hr 41 min 32 sec)
Heartbeat CPU 0 instructions: 1140000001 cycles: 290606259 heartbeat IPC: 3.293 cumulative IPC: 3.457 (Simulation time: 00 hr 41 min 58 sec)
Heartbeat CPU 0 instructions: 1150000000 cycles: 293529044 heartbeat IPC: 3.421 cumulative IPC: 3.454 (Simulation time: 00 hr 42 min 29 sec)
Heartbeat CPU 0 instructions: 1160000000 cycles: 296427661 heartbeat IPC: 3.45 cumulative IPC: 3.454 (Simulation time: 00 hr 43 min 03 sec)
Heartbeat CPU 0 instructions: 1170000004 cycles: 299229258 heartbeat IPC: 3.569 cumulative IPC: 3.461 (Simulation time: 00 hr 43 min 55 sec)
Heartbeat CPU 0 instructions: 1180000004 cycles: 302059600 heartbeat IPC: 3.533 cumulative IPC: 3.465 (Simulation time: 00 hr 44 min 48 sec)
Heartbeat CPU 0 instructions: 1190000004 cycles: 305017298 heartbeat IPC: 3.381 cumulative IPC: 3.46 (Simulation time: 00 hr 45 min 41 sec)
Heartbeat CPU 0 instructions: 1200000000 cycles: 307730014 heartbeat IPC: 3.686 cumulative IPC: 3.471 (Simulation time: 00 hr 46 min 33 sec)
Heartbeat CPU 0 instructions: 1210000003 cycles: 310623402 heartbeat IPC: 3.456 cumulative IPC: 3.47 (Simulation time: 00 hr 47 min 24 sec)
Heartbeat CPU 0 instructions: 1220000002 cycles: 314696177 heartbeat IPC: 2.455 cumulative IPC: 3.406 (Simulation time: 00 hr 47 min 59 sec)
Heartbeat CPU 0 instructions: 1230000001 cycles: 319259379 heartbeat IPC: 2.191 cumulative IPC: 3.326 (Simulation time: 00 hr 48 min 32 sec)
Heartbeat CPU 0 instructions: 1240000000 cycles: 325126160 heartbeat IPC: 1.705 cumulative IPC: 3.199 (Simulation time: 00 hr 49 min 11 sec)
Heartbeat CPU 0 instructions: 1250000002 cycles: 331190175 heartbeat IPC: 1.649 cumulative IPC: 3.083 (Simulation time: 00 hr 49 min 56 sec)
Heartbeat CPU 0 instructions: 1260000002 cycles: 334301069 heartbeat IPC: 3.215 cumulative IPC: 3.088 (Simulation time: 00 hr 50 min 24 sec)
Heartbeat CPU 0 instructions: 1270000002 cycles: 337278256 heartbeat IPC: 3.359 cumulative IPC: 3.097 (Simulation time: 00 hr 50 min 50 sec)
Heartbeat CPU 0 instructions: 1280000001 cycles: 340401732 heartbeat IPC: 3.202 cumulative IPC: 3.101 (Simulation time: 00 hr 51 min 16 sec)
Heartbeat CPU 0 instructions: 1290000002 cycles: 343523943 heartbeat IPC: 3.203 cumulative IPC: 3.104 (Simulation time: 00 hr 51 min 44 sec)
Heartbeat CPU 0 instructions: 1300000001 cycles: 346643253 heartbeat IPC: 3.206 cumulative IPC: 3.108 (Simulation time: 00 hr 52 min 10 sec)
Heartbeat CPU 0 instructions: 1310000000 cycles: 349833947 heartbeat IPC: 3.134 cumulative IPC: 3.108 (Simulation time: 00 hr 52 min 36 sec)
Heartbeat CPU 0 instructions: 1320000000 cycles: 356235641 heartbeat IPC: 1.562 cumulative IPC: 3.015 (Simulation time: 00 hr 53 min 14 sec)
Heartbeat CPU 0 instructions: 1330000000 cycles: 362905111 heartbeat IPC: 1.499 cumulative IPC: 2.926 (Simulation time: 00 hr 53 min 51 sec)
Heartbeat CPU 0 instructions: 1340000003 cycles: 368462113 heartbeat IPC: 1.8 cumulative IPC: 2.873 (Simulation time: 00 hr 54 min 25 sec)
Heartbeat CPU 0 instructions: 1350000001 cycles: 371681878 heartbeat IPC: 3.106 cumulative IPC: 2.879 (Simulation time: 00 hr 54 min 51 sec)
Heartbeat CPU 0 instructions: 1360000000 cycles: 374964025 heartbeat IPC: 3.047 cumulative IPC: 2.883 (Simulation time: 00 hr 55 min 17 sec)
Heartbeat CPU 0 instructions: 1370000002 cycles: 378243134 heartbeat IPC: 3.05 cumulative IPC: 2.888 (Simulation time: 00 hr 55 min 43 sec)
Heartbeat CPU 0 instructions: 1380000000 cycles: 384662857 heartbeat IPC: 1.558 cumulative IPC: 2.824 (Simulation time: 00 hr 56 min 19 sec)
Heartbeat CPU 0 instructions: 1390000003 cycles: 391394719 heartbeat IPC: 1.485 cumulative IPC: 2.76 (Simulation time: 00 hr 56 min 57 sec)
Heartbeat CPU 0 instructions: 1400000001 cycles: 396270068 heartbeat IPC: 2.051 cumulative IPC: 2.737 (Simulation time: 00 hr 57 min 28 sec)
Heartbeat CPU 0 instructions: 1410000003 cycles: 399239118 heartbeat IPC: 3.368 cumulative IPC: 2.749 (Simulation time: 00 hr 57 min 53 sec)
Heartbeat CPU 0 instructions: 1420000002 cycles: 402209319 heartbeat IPC: 3.367 cumulative IPC: 2.761 (Simulation time: 00 hr 58 min 17 sec)
Heartbeat CPU 0 instructions: 1430000001 cycles: 405145516 heartbeat IPC: 3.406 cumulative IPC: 2.774 (Simulation time: 00 hr 58 min 39 sec)
Heartbeat CPU 0 instructions: 1440000002 cycles: 408050641 heartbeat IPC: 3.442 cumulative IPC: 2.786 (Simulation time: 00 hr 59 min 00 sec)
Heartbeat CPU 0 instructions: 1450000000 cycles: 410936345 heartbeat IPC: 3.465 cumulative IPC: 2.798 (Simulation time: 00 hr 59 min 22 sec)
Heartbeat CPU 0 instructions: 1460000000 cycles: 413902355 heartbeat IPC: 3.372 cumulative IPC: 2.808 (Simulation time: 00 hr 59 min 44 sec)
Heartbeat CPU 0 instructions: 1470000001 cycles: 416873798 heartbeat IPC: 3.365 cumulative IPC: 2.818 (Simulation time: 01 hr 00 min 05 sec)
Heartbeat CPU 0 instructions: 1480000002 cycles: 419841344 heartbeat IPC: 3.37 cumulative IPC: 2.828 (Simulation time: 01 hr 00 min 26 sec)
Heartbeat CPU 0 instructions: 1490000002 cycles: 422752795 heartbeat IPC: 3.435 cumulative IPC: 2.838 (Simulation time: 01 hr 00 min 46 sec)
Heartbeat CPU 0 instructions: 1500000001 cycles: 425784299 heartbeat IPC: 3.299 cumulative IPC: 2.846 (Simulation time: 01 hr 01 min 08 sec)
Simulation finished CPU 0 instructions: 500000003 cycles: 175676940 cumulative IPC: 2.846 (Simulation time: 01 hr 01 min 08 sec)
Simulation complete CPU 0 instructions: 500000003 cycles: 175676940 cumulative IPC: 2.846 (Simulation time: 01 hr 01 min 08 sec)

ChampSim completed all CPUs

=== Simulation ===
CPU 0 runs traces/600.perlbench_s-210B.champsimtrace.xz
Region of Interest Statistics

CPU 0 cumulative IPC: 2.846 instructions: 500000003 cycles: 175676940
CPU 0 Branch Prediction Accuracy: 97.96% MPKI: 3.064 Average ROB Occupancy at Mispredict: 79.85
Branch type MPKI
BRANCH_DIRECT_JUMP: 0.0578
BRANCH_INDIRECT: 0.296
BRANCH_CONDITIONAL: 2.53
BRANCH_DIRECT_CALL: 0.0136
BRANCH_INDIRECT_CALL: 0.154
BRANCH_RETURN: 0.0117

LLC TOTAL        ACCESS:     353228 HIT:     105511 MISS:     247717
LLC LOAD         ACCESS:     283449 HIT:      61543 MISS:     221906
LLC RFO          ACCESS:      16381 HIT:       4846 MISS:      11535
LLC PREFETCH     ACCESS:          0 HIT:          0 MISS:          0
LLC WRITE        ACCESS:      35887 HIT:      35716 MISS:        171
LLC TRANSLATION  ACCESS:      17511 HIT:       3406 MISS:      14105
LLC PREFETCH REQUESTED:          0 ISSUED:          0 USEFUL:          0 USELESS:          0
LLC AVERAGE MISS LATENCY: 204.2 cycles
cpu0_DTLB TOTAL        ACCESS:  115954576 HIT:  115132521 MISS:     822055
cpu0_DTLB LOAD         ACCESS:  115954576 HIT:  115132521 MISS:     822055
cpu0_DTLB RFO          ACCESS:          0 HIT:          0 MISS:          0
cpu0_DTLB PREFETCH     ACCESS:          0 HIT:          0 MISS:          0
cpu0_DTLB WRITE        ACCESS:          0 HIT:          0 MISS:          0
cpu0_DTLB TRANSLATION  ACCESS:          0 HIT:          0 MISS:          0
cpu0_DTLB PREFETCH REQUESTED:          0 ISSUED:          0 USEFUL:          0 USELESS:          0
cpu0_DTLB AVERAGE MISS LATENCY: 8.978 cycles
cpu0_ITLB TOTAL        ACCESS:    6533579 HIT:    6349263 MISS:     184316
cpu0_ITLB LOAD         ACCESS:    6533579 HIT:    6349263 MISS:     184316
cpu0_ITLB RFO          ACCESS:          0 HIT:          0 MISS:          0
cpu0_ITLB PREFETCH     ACCESS:          0 HIT:          0 MISS:          0
cpu0_ITLB WRITE        ACCESS:          0 HIT:          0 MISS:          0
cpu0_ITLB TRANSLATION  ACCESS:          0 HIT:          0 MISS:          0
cpu0_ITLB PREFETCH REQUESTED:          0 ISSUED:          0 USEFUL:          0 USELESS:          0
cpu0_ITLB AVERAGE MISS LATENCY: 2.086 cycles
cpu0_L1D TOTAL        ACCESS:  166182868 HIT:  165035199 MISS:    1147669
cpu0_L1D LOAD         ACCESS:   63489851 HIT:   62527051 MISS:     962800
cpu0_L1D RFO          ACCESS:          0 HIT:          0 MISS:          0
cpu0_L1D PREFETCH     ACCESS:          0 HIT:          0 MISS:          0
cpu0_L1D WRITE        ACCESS:  102666200 HIT:  102505886 MISS:     160314
cpu0_L1D TRANSLATION  ACCESS:      26817 HIT:       2262 MISS:      24555
cpu0_L1D PREFETCH REQUESTED:          0 ISSUED:          0 USEFUL:          0 USELESS:          0
cpu0_L1D AVERAGE MISS LATENCY: 48.5 cycles
cpu0_L1I TOTAL        ACCESS:    7304382 HIT:    6155991 MISS:    1148391
cpu0_L1I LOAD         ACCESS:    7304382 HIT:    6155991 MISS:    1148391
cpu0_L1I RFO          ACCESS:          0 HIT:          0 MISS:          0
cpu0_L1I PREFETCH     ACCESS:          0 HIT:          0 MISS:          0
cpu0_L1I WRITE        ACCESS:          0 HIT:          0 MISS:          0
cpu0_L1I TRANSLATION  ACCESS:          0 HIT:          0 MISS:          0
cpu0_L1I PREFETCH REQUESTED:          0 ISSUED:          0 USEFUL:          0 USELESS:          0
cpu0_L1I AVERAGE MISS LATENCY: 9.316 cycles
cpu0_L2C TOTAL        ACCESS:    1564161 HIT:    1246492 MISS:     317669
cpu0_L2C LOAD         ACCESS:    1387113 HIT:    1103664 MISS:     283449
cpu0_L2C RFO          ACCESS:      48751 HIT:      32370 MISS:      16381
cpu0_L2C PREFETCH     ACCESS:          0 HIT:          0 MISS:          0
cpu0_L2C WRITE        ACCESS:     103812 HIT:     103484 MISS:        328
cpu0_L2C TRANSLATION  ACCESS:      24485 HIT:       6974 MISS:      17511
cpu0_L2C PREFETCH REQUESTED:          0 ISSUED:          0 USEFUL:          0 USELESS:          0
cpu0_L2C AVERAGE MISS LATENCY: 180 cycles
cpu0_STLB TOTAL        ACCESS:     626419 HIT:     602930 MISS:      23489
cpu0_STLB LOAD         ACCESS:     626419 HIT:     602930 MISS:      23489
cpu0_STLB RFO          ACCESS:          0 HIT:          0 MISS:          0
cpu0_STLB PREFETCH     ACCESS:          0 HIT:          0 MISS:          0
cpu0_STLB WRITE        ACCESS:          0 HIT:          0 MISS:          0
cpu0_STLB TRANSLATION  ACCESS:          0 HIT:          0 MISS:          0
cpu0_STLB PREFETCH REQUESTED:          0 ISSUED:          0 USEFUL:          0 USELESS:          0
cpu0_STLB AVERAGE MISS LATENCY: 169.2 cycles

DRAM Statistics

Channel 0 RQ ROW_BUFFER_HIT:      58361
  ROW_BUFFER_MISS:     189182
 AVG DBUS CONGESTED CYCLE: 3.813
WQ ROW_BUFFER_HIT: Channel 0 
  ROW_BUFFER_MISS:      11230
  FULL:      14198
