WARNING: physical memory size is smaller than virtual memory size.
WARNING: option --warmup_instructions is deprecated. Use --warmup-instructions instead.
WARNING: option --simulation_instructions is deprecated. Use --simulation-instructions instead.

*** ChampSim Multicore Out-of-Order Simulator ***
Warmup Instructions: 1000000000
Simulation Instructions: 500000000
Number of CPUs: 1
Page size: 4096

Off-chip DRAM Size: 4 GiB Channels: 1 Width: 64-bit Data Race: 3200 MT/s
Heartbeat CPU 0 instructions: 10000000 cycles: 2500066 heartbeat IPC: 4 cumulative IPC: 4 (Simulation time: 00 hr 00 min 15 sec)
Heartbeat CPU 0 instructions: 20000000 cycles: 5000066 heartbeat IPC: 4 cumulative IPC: 4 (Simulation time: 00 hr 00 min 30 sec)
Heartbeat CPU 0 instructions: 30000000 cycles: 7500066 heartbeat IPC: 4 cumulative IPC: 4 (Simulation time: 00 hr 00 min 45 sec)
Heartbeat CPU 0 instructions: 40000000 cycles: 10000066 heartbeat IPC: 4 cumulative IPC: 4 (Simulation time: 00 hr 01 min 00 sec)
Heartbeat CPU 0 instructions: 50000002 cycles: 12500110 heartbeat IPC: 4 cumulative IPC: 4 (Simulation time: 00 hr 01 min 15 sec)
Heartbeat CPU 0 instructions: 60000000 cycles: 15000214 heartbeat IPC: 4 cumulative IPC: 4 (Simulation time: 00 hr 01 min 31 sec)
Heartbeat CPU 0 instructions: 70000000 cycles: 17500214 heartbeat IPC: 4 cumulative IPC: 4 (Simulation time: 00 hr 01 min 46 sec)
Heartbeat CPU 0 instructions: 80000000 cycles: 20000214 heartbeat IPC: 4 cumulative IPC: 4 (Simulation time: 00 hr 02 min 01 sec)
Heartbeat CPU 0 instructions: 90000000 cycles: 22500214 heartbeat IPC: 4 cumulative IPC: 4 (Simulation time: 00 hr 02 min 16 sec)
Heartbeat CPU 0 instructions: 100000001 cycles: 25000530 heartbeat IPC: 3.999 cumulative IPC: 4 (Simulation time: 00 hr 02 min 31 sec)
Heartbeat CPU 0 instructions: 110000001 cycles: 27500530 heartbeat IPC: 4 cumulative IPC: 4 (Simulation time: 00 hr 02 min 46 sec)
Heartbeat CPU 0 instructions: 120000001 cycles: 30000530 heartbeat IPC: 4 cumulative IPC: 4 (Simulation time: 00 hr 03 min 02 sec)
Heartbeat CPU 0 instructions: 130000003 cycles: 32500577 heartbeat IPC: 4 cumulative IPC: 4 (Simulation time: 00 hr 03 min 17 sec)
Heartbeat CPU 0 instructions: 140000001 cycles: 35000623 heartbeat IPC: 4 cumulative IPC: 4 (Simulation time: 00 hr 03 min 32 sec)
Heartbeat CPU 0 instructions: 150000001 cycles: 37500623 heartbeat IPC: 4 cumulative IPC: 4 (Simulation time: 00 hr 03 min 47 sec)
Heartbeat CPU 0 instructions: 160000001 cycles: 40000623 heartbeat IPC: 4 cumulative IPC: 4 (Simulation time: 00 hr 04 min 03 sec)
Heartbeat CPU 0 instructions: 170000000 cycles: 42500953 heartbeat IPC: 3.999 cumulative IPC: 4 (Simulation time: 00 hr 04 min 18 sec)
Heartbeat CPU 0 instructions: 180000000 cycles: 45000953 heartbeat IPC: 4 cumulative IPC: 4 (Simulation time: 00 hr 04 min 33 sec)
Heartbeat CPU 0 instructions: 190000000 cycles: 47500953 heartbeat IPC: 4 cumulative IPC: 4 (Simulation time: 00 hr 04 min 48 sec)
Heartbeat CPU 0 instructions: 200000000 cycles: 50000984 heartbeat IPC: 4 cumulative IPC: 4 (Simulation time: 00 hr 05 min 04 sec)
Heartbeat CPU 0 instructions: 210000000 cycles: 52500984 heartbeat IPC: 4 cumulative IPC: 4 (Simulation time: 00 hr 05 min 19 sec)
Heartbeat CPU 0 instructions: 220000000 cycles: 55000984 heartbeat IPC: 4 cumulative IPC: 4 (Simulation time: 00 hr 05 min 35 sec)
Heartbeat CPU 0 instructions: 230000000 cycles: 57500984 heartbeat IPC: 4 cumulative IPC: 4 (Simulation time: 00 hr 05 min 50 sec)
Heartbeat CPU 0 instructions: 240000000 cycles: 60001143 heartbeat IPC: 4 cumulative IPC: 4 (Simulation time: 00 hr 06 min 05 sec)
Heartbeat CPU 0 instructions: 250000003 cycles: 62501322 heartbeat IPC: 4 cumulative IPC: 4 (Simulation time: 00 hr 06 min 21 sec)
Heartbeat CPU 0 instructions: 260000003 cycles: 65001322 heartbeat IPC: 4 cumulative IPC: 4 (Simulation time: 00 hr 06 min 36 sec)
Heartbeat CPU 0 instructions: 270000003 cycles: 67501322 heartbeat IPC: 4 cumulative IPC: 4 (Simulation time: 00 hr 06 min 52 sec)
Heartbeat CPU 0 instructions: 280000003 cycles: 70001322 heartbeat IPC: 4 cumulative IPC: 4 (Simulation time: 00 hr 07 min 07 sec)
Heartbeat CPU 0 instructions: 290000003 cycles: 72501460 heartbeat IPC: 4 cumulative IPC: 4 (Simulation time: 00 hr 07 min 22 sec)
Heartbeat CPU 0 instructions: 300000003 cycles: 75001460 heartbeat IPC: 4 cumulative IPC: 4 (Simulation time: 00 hr 07 min 38 sec)
Heartbeat CPU 0 instructions: 310000002 cycles: 77501651 heartbeat IPC: 4 cumulative IPC: 4 (Simulation time: 00 hr 07 min 53 sec)
Heartbeat CPU 0 instructions: 320000003 cycles: 80001900 heartbeat IPC: 4 cumulative IPC: 4 (Simulation time: 00 hr 08 min 08 sec)
Heartbeat CPU 0 instructions: 330000002 cycles: 82504531 heartbeat IPC: 3.996 cumulative IPC: 4 (Simulation time: 00 hr 08 min 24 sec)
Heartbeat CPU 0 instructions: 340000000 cycles: 85004650 heartbeat IPC: 4 cumulative IPC: 4 (Simulation time: 00 hr 08 min 39 sec)
Heartbeat CPU 0 instructions: 350000000 cycles: 87504650 heartbeat IPC: 4 cumulative IPC: 4 (Simulation time: 00 hr 08 min 54 sec)
Heartbeat CPU 0 instructions: 360000001 cycles: 90011938 heartbeat IPC: 3.988 cumulative IPC: 3.999 (Simulation time: 00 hr 09 min 09 sec)
Heartbeat CPU 0 instructions: 370000001 cycles: 92511938 heartbeat IPC: 4 cumulative IPC: 3.999 (Simulation time: 00 hr 09 min 25 sec)
Heartbeat CPU 0 instructions: 380000002 cycles: 95011951 heartbeat IPC: 4 cumulative IPC: 3.999 (Simulation time: 00 hr 09 min 40 sec)
Heartbeat CPU 0 instructions: 390000003 cycles: 97511965 heartbeat IPC: 4 cumulative IPC: 4 (Simulation time: 00 hr 09 min 55 sec)
Heartbeat CPU 0 instructions: 400000003 cycles: 100011965 heartbeat IPC: 4 cumulative IPC: 4 (Simulation time: 00 hr 10 min 11 sec)
Heartbeat CPU 0 instructions: 410000003 cycles: 102511965 heartbeat IPC: 4 cumulative IPC: 4 (Simulation time: 00 hr 10 min 26 sec)
Heartbeat CPU 0 instructions: 420000003 cycles: 105012017 heartbeat IPC: 4 cumulative IPC: 4 (Simulation time: 00 hr 10 min 41 sec)
Heartbeat CPU 0 instructions: 430000001 cycles: 107512058 heartbeat IPC: 4 cumulative IPC: 4 (Simulation time: 00 hr 10 min 56 sec)
Heartbeat CPU 0 instructions: 440000003 cycles: 110019378 heartbeat IPC: 3.988 cumulative IPC: 3.999 (Simulation time: 00 hr 11 min 12 sec)
Heartbeat CPU 0 instructions: 450000003 cycles: 112519378 heartbeat IPC: 4 cumulative IPC: 3.999 (Simulation time: 00 hr 11 min 27 sec)
Heartbeat CPU 0 instructions: 460000003 cycles: 115019378 heartbeat IPC: 4 cumulative IPC: 3.999 (Simulation time: 00 hr 11 min 42 sec)
Heartbeat CPU 0 instructions: 470000003 cycles: 117528335 heartbeat IPC: 3.986 cumulative IPC: 3.999 (Simulation time: 00 hr 11 min 58 sec)
Heartbeat CPU 0 instructions: 480000003 cycles: 120032225 heartbeat IPC: 3.994 cumulative IPC: 3.999 (Simulation time: 00 hr 12 min 14 sec)
Heartbeat CPU 0 instructions: 490000000 cycles: 122532486 heartbeat IPC: 4 cumulative IPC: 3.999 (Simulation time: 00 hr 12 min 29 sec)
Heartbeat CPU 0 instructions: 500000001 cycles: 125032634 heartbeat IPC: 4 cumulative IPC: 3.999 (Simulation time: 00 hr 12 min 45 sec)
Heartbeat CPU 0 instructions: 510000002 cycles: 127533093 heartbeat IPC: 3.999 cumulative IPC: 3.999 (Simulation time: 00 hr 13 min 01 sec)
Heartbeat CPU 0 instructions: 520000002 cycles: 130042357 heartbeat IPC: 3.985 cumulative IPC: 3.999 (Simulation time: 00 hr 13 min 18 sec)
Heartbeat CPU 0 instructions: 530000003 cycles: 132542726 heartbeat IPC: 3.999 cumulative IPC: 3.999 (Simulation time: 00 hr 13 min 35 sec)
Heartbeat CPU 0 instructions: 540000000 cycles: 135053442 heartbeat IPC: 3.983 cumulative IPC: 3.998 (Simulation time: 00 hr 13 min 52 sec)
Heartbeat CPU 0 instructions: 550000001 cycles: 137558455 heartbeat IPC: 3.992 cumulative IPC: 3.998 (Simulation time: 00 hr 14 min 08 sec)
Heartbeat CPU 0 instructions: 560000001 cycles: 140058455 heartbeat IPC: 4 cumulative IPC: 3.998 (Simulation time: 00 hr 14 min 23 sec)
Heartbeat CPU 0 instructions: 570000001 cycles: 142558455 heartbeat IPC: 4 cumulative IPC: 3.998 (Simulation time: 00 hr 14 min 39 sec)
Heartbeat CPU 0 instructions: 580000001 cycles: 145058455 heartbeat IPC: 4 cumulative IPC: 3.998 (Simulation time: 00 hr 14 min 54 sec)
Heartbeat CPU 0 instructions: 590000000 cycles: 147559252 heartbeat IPC: 3.999 cumulative IPC: 3.998 (Simulation time: 00 hr 15 min 10 sec)
Heartbeat CPU 0 instructions: 600000003 cycles: 150060012 heartbeat IPC: 3.999 cumulative IPC: 3.998 (Simulation time: 00 hr 15 min 26 sec)
Heartbeat CPU 0 instructions: 610000002 cycles: 152561110 heartbeat IPC: 3.998 cumulative IPC: 3.998 (Simulation time: 00 hr 15 min 42 sec)
Heartbeat CPU 0 instructions: 620000002 cycles: 155064787 heartbeat IPC: 3.994 cumulative IPC: 3.998 (Simulation time: 00 hr 15 min 59 sec)
Heartbeat CPU 0 instructions: 630000003 cycles: 157566206 heartbeat IPC: 3.998 cumulative IPC: 3.998 (Simulation time: 00 hr 16 min 14 sec)
Heartbeat CPU 0 instructions: 640000002 cycles: 160066346 heartbeat IPC: 4 cumulative IPC: 3.998 (Simulation time: 00 hr 16 min 31 sec)
Heartbeat CPU 0 instructions: 650000000 cycles: 162566727 heartbeat IPC: 3.999 cumulative IPC: 3.998 (Simulation time: 00 hr 16 min 47 sec)
Heartbeat CPU 0 instructions: 660000001 cycles: 165069226 heartbeat IPC: 3.996 cumulative IPC: 3.998 (Simulation time: 00 hr 17 min 03 sec)
Heartbeat CPU 0 instructions: 670000002 cycles: 167569343 heartbeat IPC: 4 cumulative IPC: 3.998 (Simulation time: 00 hr 17 min 19 sec)
Heartbeat CPU 0 instructions: 680000003 cycles: 170069526 heartbeat IPC: 4 cumulative IPC: 3.998 (Simulation time: 00 hr 17 min 35 sec)
Heartbeat CPU 0 instructions: 690000000 cycles: 172598032 heartbeat IPC: 3.955 cumulative IPC: 3.998 (Simulation time: 00 hr 17 min 52 sec)
Heartbeat CPU 0 instructions: 700000000 cycles: 175098032 heartbeat IPC: 4 cumulative IPC: 3.998 (Simulation time: 00 hr 18 min 07 sec)
Heartbeat CPU 0 instructions: 710000002 cycles: 177598236 heartbeat IPC: 4 cumulative IPC: 3.998 (Simulation time: 00 hr 18 min 22 sec)
Heartbeat CPU 0 instructions: 720000002 cycles: 180098412 heartbeat IPC: 4 cumulative IPC: 3.998 (Simulation time: 00 hr 18 min 38 sec)
Heartbeat CPU 0 instructions: 730000002 cycles: 182598412 heartbeat IPC: 4 cumulative IPC: 3.998 (Simulation time: 00 hr 18 min 53 sec)
Heartbeat CPU 0 instructions: 740000002 cycles: 185098412 heartbeat IPC: 4 cumulative IPC: 3.998 (Simulation time: 00 hr 19 min 08 sec)
Heartbeat CPU 0 instructions: 750000002 cycles: 187598853 heartbeat IPC: 3.999 cumulative IPC: 3.998 (Simulation time: 00 hr 19 min 24 sec)
Heartbeat CPU 0 instructions: 760000001 cycles: 190099253 heartbeat IPC: 3.999 cumulative IPC: 3.998 (Simulation time: 00 hr 19 min 39 sec)
Heartbeat CPU 0 instructions: 770000002 cycles: 192599379 heartbeat IPC: 4 cumulative IPC: 3.998 (Simulation time: 00 hr 19 min 54 sec)
Heartbeat CPU 0 instructions: 780000002 cycles: 195099379 heartbeat IPC: 4 cumulative IPC: 3.998 (Simulation time: 00 hr 20 min 10 sec)
Heartbeat CPU 0 instructions: 790000002 cycles: 197599750 heartbeat IPC: 3.999 cumulative IPC: 3.998 (Simulation time: 00 hr 20 min 25 sec)
Heartbeat CPU 0 instructions: 800000003 cycles: 200100058 heartbeat IPC: 4 cumulative IPC: 3.998 (Simulation time: 00 hr 20 min 40 sec)
Heartbeat CPU 0 instructions: 810000001 cycles: 202600810 heartbeat IPC: 3.999 cumulative IPC: 3.998 (Simulation time: 00 hr 20 min 56 sec)
Heartbeat CPU 0 instructions: 820000001 cycles: 205100810 heartbeat IPC: 4 cumulative IPC: 3.998 (Simulation time: 00 hr 21 min 11 sec)
Heartbeat CPU 0 instructions: 830000001 cycles: 207600810 heartbeat IPC: 4 cumulative IPC: 3.998 (Simulation time: 00 hr 21 min 26 sec)
Heartbeat CPU 0 instructions: 840000002 cycles: 210100989 heartbeat IPC: 4 cumulative IPC: 3.998 (Simulation time: 00 hr 21 min 42 sec)
Heartbeat CPU 0 instructions: 850000003 cycles: 212602465 heartbeat IPC: 3.998 cumulative IPC: 3.998 (Simulation time: 00 hr 21 min 57 sec)
Heartbeat CPU 0 instructions: 860000003 cycles: 215102465 heartbeat IPC: 4 cumulative IPC: 3.998 (Simulation time: 00 hr 22 min 13 sec)
Heartbeat CPU 0 instructions: 870000003 cycles: 217602465 heartbeat IPC: 4 cumulative IPC: 3.998 (Simulation time: 00 hr 22 min 28 sec)
Heartbeat CPU 0 instructions: 880000002 cycles: 220103316 heartbeat IPC: 3.999 cumulative IPC: 3.998 (Simulation time: 00 hr 22 min 43 sec)
Heartbeat CPU 0 instructions: 890000002 cycles: 222603316 heartbeat IPC: 4 cumulative IPC: 3.998 (Simulation time: 00 hr 22 min 59 sec)
Heartbeat CPU 0 instructions: 900000002 cycles: 225103564 heartbeat IPC: 4 cumulative IPC: 3.998 (Simulation time: 00 hr 23 min 14 sec)
Heartbeat CPU 0 instructions: 910000000 cycles: 227603958 heartbeat IPC: 3.999 cumulative IPC: 3.998 (Simulation time: 00 hr 23 min 29 sec)
Heartbeat CPU 0 instructions: 920000001 cycles: 230104356 heartbeat IPC: 3.999 cumulative IPC: 3.998 (Simulation time: 00 hr 23 min 45 sec)
Heartbeat CPU 0 instructions: 930000003 cycles: 232604610 heartbeat IPC: 4 cumulative IPC: 3.998 (Simulation time: 00 hr 24 min 00 sec)
Heartbeat CPU 0 instructions: 940000003 cycles: 235104610 heartbeat IPC: 4 cumulative IPC: 3.998 (Simulation time: 00 hr 24 min 16 sec)
Heartbeat CPU 0 instructions: 950000003 cycles: 237604957 heartbeat IPC: 3.999 cumulative IPC: 3.998 (Simulation time: 00 hr 24 min 31 sec)
Heartbeat CPU 0 instructions: 960000000 cycles: 240105729 heartbeat IPC: 3.999 cumulative IPC: 3.998 (Simulation time: 00 hr 24 min 47 sec)
Heartbeat CPU 0 instructions: 970000003 cycles: 242605779 heartbeat IPC: 4 cumulative IPC: 3.998 (Simulation time: 00 hr 25 min 02 sec)
Heartbeat CPU 0 instructions: 980000002 cycles: 245105783 heartbeat IPC: 4 cumulative IPC: 3.998 (Simulation time: 00 hr 25 min 18 sec)
Heartbeat CPU 0 instructions: 990000003 cycles: 247607305 heartbeat IPC: 3.998 cumulative IPC: 3.998 (Simulation time: 00 hr 25 min 33 sec)
Heartbeat CPU 0 instructions: 1000000003 cycles: 250107305 heartbeat IPC: 4 cumulative IPC: 3.998 (Simulation time: 00 hr 25 min 49 sec)
Warmup finished CPU 0 instructions: 1000000003 cycles: 250107306 cumulative IPC: 3.998 (Simulation time: 00 hr 25 min 49 sec)
Warmup complete CPU 0 instructions: 1000000003 cycles: 250107306 cumulative IPC: 3.998 (Simulation time: 00 hr 25 min 49 sec)
Heartbeat CPU 0 instructions: 1010000001 cycles: 253064998 heartbeat IPC: 3.381 cumulative IPC: 3.381 (Simulation time: 00 hr 26 min 07 sec)
Heartbeat CPU 0 instructions: 1020000003 cycles: 255952163 heartbeat IPC: 3.464 cumulative IPC: 3.422 (Simulation time: 00 hr 26 min 26 sec)
Heartbeat CPU 0 instructions: 1030000000 cycles: 258734697 heartbeat IPC: 3.594 cumulative IPC: 3.477 (Simulation time: 00 hr 26 min 45 sec)
Heartbeat CPU 0 instructions: 1040000000 cycles: 261568287 heartbeat IPC: 3.529 cumulative IPC: 3.49 (Simulation time: 00 hr 27 min 04 sec)
Heartbeat CPU 0 instructions: 1050000000 cycles: 264447470 heartbeat IPC: 3.473 cumulative IPC: 3.487 (Simulation time: 00 hr 27 min 22 sec)
Heartbeat CPU 0 instructions: 1060000001 cycles: 267399953 heartbeat IPC: 3.387 cumulative IPC: 3.47 (Simulation time: 00 hr 27 min 41 sec)
Heartbeat CPU 0 instructions: 1070000002 cycles: 270439446 heartbeat IPC: 3.29 cumulative IPC: 3.443 (Simulation time: 00 hr 28 min 00 sec)
Heartbeat CPU 0 instructions: 1080000003 cycles: 273349063 heartbeat IPC: 3.437 cumulative IPC: 3.442 (Simulation time: 00 hr 28 min 19 sec)
Heartbeat CPU 0 instructions: 1090000000 cycles: 276255221 heartbeat IPC: 3.441 cumulative IPC: 3.442 (Simulation time: 00 hr 28 min 38 sec)
Heartbeat CPU 0 instructions: 1100000000 cycles: 279011207 heartbeat IPC: 3.628 cumulative IPC: 3.46 (Simulation time: 00 hr 28 min 57 sec)
Heartbeat CPU 0 instructions: 1110000004 cycles: 281950381 heartbeat IPC: 3.402 cumulative IPC: 3.454 (Simulation time: 00 hr 29 min 15 sec)
Heartbeat CPU 0 instructions: 1120000000 cycles: 284829738 heartbeat IPC: 3.473 cumulative IPC: 3.456 (Simulation time: 00 hr 29 min 34 sec)
Heartbeat CPU 0 instructions: 1130000002 cycles: 287460692 heartbeat IPC: 3.801 cumulative IPC: 3.48 (Simulation time: 00 hr 29 min 52 sec)
Heartbeat CPU 0 instructions: 1140000001 cycles: 290502524 heartbeat IPC: 3.287 cumulative IPC: 3.466 (Simulation time: 00 hr 30 min 11 sec)
Heartbeat CPU 0 instructions: 1150000001 cycles: 293428796 heartbeat IPC: 3.417 cumulative IPC: 3.462 (Simulation time: 00 hr 30 min 30 sec)
Heartbeat CPU 0 instructions: 1160000000 cycles: 296317852 heartbeat IPC: 3.461 cumulative IPC: 3.462 (Simulation time: 00 hr 30 min 48 sec)
Heartbeat CPU 0 instructions: 1170000004 cycles: 299103706 heartbeat IPC: 3.59 cumulative IPC: 3.47 (Simulation time: 00 hr 31 min 07 sec)
Heartbeat CPU 0 instructions: 1180000004 cycles: 301920944 heartbeat IPC: 3.55 cumulative IPC: 3.474 (Simulation time: 00 hr 31 min 25 sec)
Heartbeat CPU 0 instructions: 1190000004 cycles: 304873033 heartbeat IPC: 3.387 cumulative IPC: 3.469 (Simulation time: 00 hr 31 min 44 sec)
Heartbeat CPU 0 instructions: 1200000000 cycles: 307621325 heartbeat IPC: 3.639 cumulative IPC: 3.477 (Simulation time: 00 hr 32 min 02 sec)
Heartbeat CPU 0 instructions: 1210000003 cycles: 310525235 heartbeat IPC: 3.444 cumulative IPC: 3.476 (Simulation time: 00 hr 32 min 22 sec)
Heartbeat CPU 0 instructions: 1220000001 cycles: 314422344 heartbeat IPC: 2.566 cumulative IPC: 3.421 (Simulation time: 00 hr 32 min 44 sec)
Heartbeat CPU 0 instructions: 1230000001 cycles: 318696430 heartbeat IPC: 2.34 cumulative IPC: 3.353 (Simulation time: 00 hr 33 min 07 sec)
Heartbeat CPU 0 instructions: 1240000000 cycles: 323867824 heartbeat IPC: 1.934 cumulative IPC: 3.254 (Simulation time: 00 hr 33 min 33 sec)
Heartbeat CPU 0 instructions: 1250000002 cycles: 329370956 heartbeat IPC: 1.817 cumulative IPC: 3.154 (Simulation time: 00 hr 34 min 00 sec)
Heartbeat CPU 0 instructions: 1260000002 cycles: 332481159 heartbeat IPC: 3.215 cumulative IPC: 3.156 (Simulation time: 00 hr 34 min 20 sec)
Heartbeat CPU 0 instructions: 1270000003 cycles: 335425321 heartbeat IPC: 3.397 cumulative IPC: 3.165 (Simulation time: 00 hr 34 min 39 sec)
Heartbeat CPU 0 instructions: 1280000001 cycles: 338524093 heartbeat IPC: 3.227 cumulative IPC: 3.167 (Simulation time: 00 hr 34 min 58 sec)
Heartbeat CPU 0 instructions: 1290000002 cycles: 341617710 heartbeat IPC: 3.232 cumulative IPC: 3.169 (Simulation time: 00 hr 35 min 18 sec)
Heartbeat CPU 0 instructions: 1300000001 cycles: 344709623 heartbeat IPC: 3.234 cumulative IPC: 3.171 (Simulation time: 00 hr 35 min 37 sec)
Heartbeat CPU 0 instructions: 1310000000 cycles: 347851306 heartbeat IPC: 3.183 cumulative IPC: 3.172 (Simulation time: 00 hr 35 min 57 sec)
Heartbeat CPU 0 instructions: 1320000003 cycles: 353574686 heartbeat IPC: 1.747 cumulative IPC: 3.093 (Simulation time: 00 hr 36 min 24 sec)
Heartbeat CPU 0 instructions: 1330000002 cycles: 359323804 heartbeat IPC: 1.739 cumulative IPC: 3.022 (Simulation time: 00 hr 36 min 51 sec)
Heartbeat CPU 0 instructions: 1340000003 cycles: 364426745 heartbeat IPC: 1.96 cumulative IPC: 2.974 (Simulation time: 00 hr 37 min 16 sec)
Heartbeat CPU 0 instructions: 1350000001 cycles: 367606988 heartbeat IPC: 3.144 cumulative IPC: 2.979 (Simulation time: 00 hr 37 min 36 sec)
Heartbeat CPU 0 instructions: 1360000001 cycles: 370833426 heartbeat IPC: 3.099 cumulative IPC: 2.982 (Simulation time: 00 hr 37 min 56 sec)
Heartbeat CPU 0 instructions: 1370000002 cycles: 374070262 heartbeat IPC: 3.089 cumulative IPC: 2.985 (Simulation time: 00 hr 38 min 16 sec)
Heartbeat CPU 0 instructions: 1380000000 cycles: 379809394 heartbeat IPC: 1.742 cumulative IPC: 2.93 (Simulation time: 00 hr 38 min 43 sec)
Heartbeat CPU 0 instructions: 1390000003 cycles: 385692315 heartbeat IPC: 1.7 cumulative IPC: 2.876 (Simulation time: 00 hr 39 min 11 sec)
Heartbeat CPU 0 instructions: 1400000001 cycles: 390289969 heartbeat IPC: 2.175 cumulative IPC: 2.853 (Simulation time: 00 hr 39 min 35 sec)
Heartbeat CPU 0 instructions: 1410000003 cycles: 393296205 heartbeat IPC: 3.326 cumulative IPC: 2.863 (Simulation time: 00 hr 39 min 53 sec)
Heartbeat CPU 0 instructions: 1420000002 cycles: 396246651 heartbeat IPC: 3.389 cumulative IPC: 2.874 (Simulation time: 00 hr 40 min 12 sec)
Heartbeat CPU 0 instructions: 1430000000 cycles: 399157174 heartbeat IPC: 3.436 cumulative IPC: 2.885 (Simulation time: 00 hr 40 min 31 sec)
Heartbeat CPU 0 instructions: 1440000002 cycles: 402031701 heartbeat IPC: 3.479 cumulative IPC: 2.896 (Simulation time: 00 hr 40 min 50 sec)
Heartbeat CPU 0 instructions: 1450000000 cycles: 404906567 heartbeat IPC: 3.478 cumulative IPC: 2.907 (Simulation time: 00 hr 41 min 09 sec)
Heartbeat CPU 0 instructions: 1460000000 cycles: 407816629 heartbeat IPC: 3.436 cumulative IPC: 2.917 (Simulation time: 00 hr 41 min 27 sec)
Heartbeat CPU 0 instructions: 1470000004 cycles: 410775313 heartbeat IPC: 3.38 cumulative IPC: 2.925 (Simulation time: 00 hr 41 min 46 sec)
Heartbeat CPU 0 instructions: 1480000002 cycles: 413711900 heartbeat IPC: 3.405 cumulative IPC: 2.934 (Simulation time: 00 hr 42 min 05 sec)
Heartbeat CPU 0 instructions: 1490000002 cycles: 416600270 heartbeat IPC: 3.462 cumulative IPC: 2.943 (Simulation time: 00 hr 42 min 24 sec)
Heartbeat CPU 0 instructions: 1500000001 cycles: 419612765 heartbeat IPC: 3.32 cumulative IPC: 2.95 (Simulation time: 00 hr 42 min 43 sec)
Simulation finished CPU 0 instructions: 500000003 cycles: 169505461 cumulative IPC: 2.95 (Simulation time: 00 hr 42 min 43 sec)
Simulation complete CPU 0 instructions: 500000003 cycles: 169505461 cumulative IPC: 2.95 (Simulation time: 00 hr 42 min 43 sec)

ChampSim completed all CPUs

=== Simulation ===
CPU 0 runs traces/600.perlbench_s-210B.champsimtrace.xz
Region of Interest Statistics

CPU 0 cumulative IPC: 2.95 instructions: 500000003 cycles: 169505461
CPU 0 Branch Prediction Accuracy: 98.25% MPKI: 2.63 Average ROB Occupancy at Mispredict: 90.48
Branch type MPKI
BRANCH_DIRECT_JUMP: 0.0578
BRANCH_INDIRECT: 0.296
BRANCH_CONDITIONAL: 2.1
BRANCH_DIRECT_CALL: 0.0136
BRANCH_INDIRECT_CALL: 0.154
BRANCH_RETURN: 0.0117

LLC TOTAL        ACCESS:     353113 HIT:     105447 MISS:     247666
LLC LOAD         ACCESS:     283170 HIT:      61241 MISS:     221929
LLC RFO          ACCESS:      16268 HIT:       4793 MISS:      11475
LLC PREFETCH     ACCESS:          0 HIT:          0 MISS:          0
LLC WRITE        ACCESS:      36186 HIT:      36011 MISS:        175
LLC TRANSLATION  ACCESS:      17489 HIT:       3402 MISS:      14087
LLC PREFETCH REQUESTED:          0 ISSUED:          0 USEFUL:          0 USELESS:          0
LLC AVERAGE MISS LATENCY: 211.7 cycles
cpu0_DTLB TOTAL        ACCESS:  115370627 HIT:  114539647 MISS:     830980
cpu0_DTLB LOAD         ACCESS:  115370627 HIT:  114539647 MISS:     830980
cpu0_DTLB RFO          ACCESS:          0 HIT:          0 MISS:          0
cpu0_DTLB PREFETCH     ACCESS:          0 HIT:          0 MISS:          0
cpu0_DTLB WRITE        ACCESS:          0 HIT:          0 MISS:          0
cpu0_DTLB TRANSLATION  ACCESS:          0 HIT:          0 MISS:          0
cpu0_DTLB PREFETCH REQUESTED:          0 ISSUED:          0 USEFUL:          0 USELESS:          0
cpu0_DTLB AVERAGE MISS LATENCY: 8.934 cycles
cpu0_ITLB TOTAL        ACCESS:    6562421 HIT:    6369451 MISS:     192970
cpu0_ITLB LOAD         ACCESS:    6562421 HIT:    6369451 MISS:     192970
cpu0_ITLB RFO          ACCESS:          0 HIT:          0 MISS:          0
cpu0_ITLB PREFETCH     ACCESS:          0 HIT:          0 MISS:          0
cpu0_ITLB WRITE        ACCESS:          0 HIT:          0 MISS:          0
cpu0_ITLB TRANSLATION  ACCESS:          0 HIT:          0 MISS:          0
cpu0_ITLB PREFETCH REQUESTED:          0 ISSUED:          0 USEFUL:          0 USELESS:          0
cpu0_ITLB AVERAGE MISS LATENCY: 1.915 cycles
cpu0_L1D TOTAL        ACCESS:  165428813 HIT:  164253635 MISS:    1175178
cpu0_L1D LOAD         ACCESS:   62724018 HIT:   61737357 MISS:     986661
cpu0_L1D RFO          ACCESS:          0 HIT:          0 MISS:          0
cpu0_L1D PREFETCH     ACCESS:          0 HIT:          0 MISS:          0
cpu0_L1D WRITE        ACCESS:  102677979 HIT:  102514027 MISS:     163952
cpu0_L1D TRANSLATION  ACCESS:      26816 HIT:       2251 MISS:      24565
cpu0_L1D PREFETCH REQUESTED:          0 ISSUED:          0 USEFUL:          0 USELESS:          0
cpu0_L1D AVERAGE MISS LATENCY: 48.41 cycles
cpu0_L1I TOTAL        ACCESS:    7341948 HIT:    6170472 MISS:    1171476
cpu0_L1I LOAD         ACCESS:    7341948 HIT:    6170472 MISS:    1171476
cpu0_L1I RFO          ACCESS:          0 HIT:          0 MISS:          0
cpu0_L1I PREFETCH     ACCESS:          0 HIT:          0 MISS:          0
cpu0_L1I WRITE        ACCESS:          0 HIT:          0 MISS:          0
cpu0_L1I TRANSLATION  ACCESS:          0 HIT:          0 MISS:          0
cpu0_L1I PREFETCH REQUESTED:          0 ISSUED:          0 USEFUL:          0 USELESS:          0
cpu0_L1I AVERAGE MISS LATENCY: 9.16 cycles
cpu0_L2C TOTAL        ACCESS:    1565991 HIT:    1248723 MISS:     317268
cpu0_L2C LOAD         ACCESS:    1387152 HIT:    1103982 MISS:     283170
cpu0_L2C RFO          ACCESS:      48820 HIT:      32552 MISS:      16268
cpu0_L2C PREFETCH     ACCESS:          0 HIT:          0 MISS:          0
cpu0_L2C WRITE        ACCESS:     105533 HIT:     105192 MISS:        341
cpu0_L2C TRANSLATION  ACCESS:      24486 HIT:       6997 MISS:      17489
cpu0_L2C PREFETCH REQUESTED:          0 ISSUED:          0 USEFUL:          0 USELESS:          0
cpu0_L2C AVERAGE MISS LATENCY: 186 cycles
cpu0_STLB TOTAL        ACCESS:     626257 HIT:     602768 MISS:      23489
cpu0_STLB LOAD         ACCESS:     626257 HIT:     602768 MISS:      23489
cpu0_STLB RFO          ACCESS:          0 HIT:          0 MISS:          0
cpu0_STLB PREFETCH     ACCESS:          0 HIT:          0 MISS:          0
cpu0_STLB WRITE        ACCESS:          0 HIT:          0 MISS:          0
cpu0_STLB TRANSLATION  ACCESS:          0 HIT:          0 MISS:          0
cpu0_STLB PREFETCH REQUESTED:          0 ISSUED:          0 USEFUL:          0 USELESS:          0
cpu0_STLB AVERAGE MISS LATENCY: 175.3 cycles

DRAM Statistics

Channel 0 RQ ROW_BUFFER_HIT:      56706
  ROW_BUFFER_MISS:     190778
 AVG DBUS CONGESTED CYCLE: 3.828
WQ ROW_BUFFER_HIT: Channel 0 
  ROW_BUFFER_MISS:      10034
  FULL:      15545
