WARNING: physical memory size is smaller than virtual memory size.

*** ChampSim Multicore Out-of-Order Simulator ***
Warmup Instructions: 1000000000
Simulation Instructions: 500000000
Number of CPUs: 1
Page size: 4096

Off-chip DRAM Size: 4 GiB Channels: 1 Width: 64-bit Data Race: 3200 MT/s
Heartbeat CPU 0 instructions: 10000000 cycles: 2500066 heartbeat IPC: 4 cumulative IPC: 4 (Simulation time: 00 hr 00 min 16 sec)
Heartbeat CPU 0 instructions: 20000000 cycles: 5000066 heartbeat IPC: 4 cumulative IPC: 4 (Simulation time: 00 hr 00 min 33 sec)
Heartbeat CPU 0 instructions: 30000000 cycles: 7500066 heartbeat IPC: 4 cumulative IPC: 4 (Simulation time: 00 hr 00 min 51 sec)
Heartbeat CPU 0 instructions: 40000000 cycles: 10000066 heartbeat IPC: 4 cumulative IPC: 4 (Simulation time: 00 hr 01 min 09 sec)
Heartbeat CPU 0 instructions: 50000002 cycles: 12500106 heartbeat IPC: 4 cumulative IPC: 4 (Simulation time: 00 hr 01 min 28 sec)
Heartbeat CPU 0 instructions: 60000000 cycles: 15000211 heartbeat IPC: 4 cumulative IPC: 4 (Simulation time: 00 hr 01 min 48 sec)
Heartbeat CPU 0 instructions: 70000000 cycles: 17500211 heartbeat IPC: 4 cumulative IPC: 4 (Simulation time: 00 hr 02 min 08 sec)
Heartbeat CPU 0 instructions: 80000000 cycles: 20000211 heartbeat IPC: 4 cumulative IPC: 4 (Simulation time: 00 hr 02 min 28 sec)
Heartbeat CPU 0 instructions: 90000000 cycles: 22500211 heartbeat IPC: 4 cumulative IPC: 4 (Simulation time: 00 hr 02 min 48 sec)
Heartbeat CPU 0 instructions: 100000001 cycles: 25000522 heartbeat IPC: 4 cumulative IPC: 4 (Simulation time: 00 hr 03 min 08 sec)
Heartbeat CPU 0 instructions: 110000001 cycles: 27500522 heartbeat IPC: 4 cumulative IPC: 4 (Simulation time: 00 hr 03 min 28 sec)
Heartbeat CPU 0 instructions: 120000001 cycles: 30000522 heartbeat IPC: 4 cumulative IPC: 4 (Simulation time: 00 hr 03 min 48 sec)
Heartbeat CPU 0 instructions: 130000003 cycles: 32500568 heartbeat IPC: 4 cumulative IPC: 4 (Simulation time: 00 hr 04 min 08 sec)
Heartbeat CPU 0 instructions: 140000001 cycles: 35000614 heartbeat IPC: 4 cumulative IPC: 4 (Simulation time: 00 hr 04 min 28 sec)
Heartbeat CPU 0 instructions: 150000001 cycles: 37500614 heartbeat IPC: 4 cumulative IPC: 4 (Simulation time: 00 hr 04 min 49 sec)
Heartbeat CPU 0 instructions: 160000001 cycles: 40000614 heartbeat IPC: 4 cumulative IPC: 4 (Simulation time: 00 hr 05 min 09 sec)
Heartbeat CPU 0 instructions: 170000000 cycles: 42500945 heartbeat IPC: 3.999 cumulative IPC: 4 (Simulation time: 00 hr 05 min 29 sec)
Heartbeat CPU 0 instructions: 180000000 cycles: 45000945 heartbeat IPC: 4 cumulative IPC: 4 (Simulation time: 00 hr 05 min 50 sec)
Heartbeat CPU 0 instructions: 190000000 cycles: 47500945 heartbeat IPC: 4 cumulative IPC: 4 (Simulation time: 00 hr 06 min 10 sec)
Heartbeat CPU 0 instructions: 200000000 cycles: 50000976 heartbeat IPC: 4 cumulative IPC: 4 (Simulation time: 00 hr 06 min 30 sec)
Heartbeat CPU 0 instructions: 210000000 cycles: 52500976 heartbeat IPC: 4 cumulative IPC: 4 (Simulation time: 00 hr 06 min 50 sec)
Heartbeat CPU 0 instructions: 220000000 cycles: 55000976 heartbeat IPC: 4 cumulative IPC: 4 (Simulation time: 00 hr 07 min 10 sec)
Heartbeat CPU 0 instructions: 230000000 cycles: 57500976 heartbeat IPC: 4 cumulative IPC: 4 (Simulation time: 00 hr 07 min 31 sec)
Heartbeat CPU 0 instructions: 240000000 cycles: 60001135 heartbeat IPC: 4 cumulative IPC: 4 (Simulation time: 00 hr 08 min 07 sec)
Heartbeat CPU 0 instructions: 250000003 cycles: 62501314 heartbeat IPC: 4 cumulative IPC: 4 (Simulation time: 00 hr 08 min 46 sec)
Heartbeat CPU 0 instructions: 260000003 cycles: 65001314 heartbeat IPC: 4 cumulative IPC: 4 (Simulation time: 00 hr 09 min 24 sec)
Heartbeat CPU 0 instructions: 270000003 cycles: 67501314 heartbeat IPC: 4 cumulative IPC: 4 (Simulation time: 00 hr 10 min 02 sec)
Heartbeat CPU 0 instructions: 280000003 cycles: 70001314 heartbeat IPC: 4 cumulative IPC: 4 (Simulation time: 00 hr 10 min 41 sec)
Heartbeat CPU 0 instructions: 290000003 cycles: 72501456 heartbeat IPC: 4 cumulative IPC: 4 (Simulation time: 00 hr 11 min 19 sec)
Heartbeat CPU 0 instructions: 300000003 cycles: 75001456 heartbeat IPC: 4 cumulative IPC: 4 (Simulation time: 00 hr 11 min 57 sec)
Heartbeat CPU 0 instructions: 310000002 cycles: 77501648 heartbeat IPC: 4 cumulative IPC: 4 (Simulation time: 00 hr 12 min 35 sec)
Heartbeat CPU 0 instructions: 320000003 cycles: 80001896 heartbeat IPC: 4 cumulative IPC: 4 (Simulation time: 00 hr 13 min 14 sec)
Heartbeat CPU 0 instructions: 330000002 cycles: 82504527 heartbeat IPC: 3.996 cumulative IPC: 4 (Simulation time: 00 hr 13 min 53 sec)
Heartbeat CPU 0 instructions: 340000000 cycles: 85004646 heartbeat IPC: 4 cumulative IPC: 4 (Simulation time: 00 hr 14 min 31 sec)
Heartbeat CPU 0 instructions: 350000000 cycles: 87504646 heartbeat IPC: 4 cumulative IPC: 4 (Simulation time: 00 hr 15 min 09 sec)
Heartbeat CPU 0 instructions: 360000001 cycles: 90011935 heartbeat IPC: 3.988 cumulative IPC: 3.999 (Simulation time: 00 hr 15 min 47 sec)
Heartbeat CPU 0 instructions: 370000001 cycles: 92511935 heartbeat IPC: 4 cumulative IPC: 3.999 (Simulation time: 00 hr 16 min 26 sec)
Heartbeat CPU 0 instructions: 380000002 cycles: 95011948 heartbeat IPC: 4 cumulative IPC: 3.999 (Simulation time: 00 hr 17 min 04 sec)
Heartbeat CPU 0 instructions: 390000003 cycles: 97511962 heartbeat IPC: 4 cumulative IPC: 4 (Simulation time: 00 hr 17 min 42 sec)
Heartbeat CPU 0 instructions: 400000003 cycles: 100011962 heartbeat IPC: 4 cumulative IPC: 4 (Simulation time: 00 hr 18 min 21 sec)
Heartbeat CPU 0 instructions: 410000003 cycles: 102511962 heartbeat IPC: 4 cumulative IPC: 4 (Simulation time: 00 hr 18 min 59 sec)
Heartbeat CPU 0 instructions: 420000003 cycles: 105012014 heartbeat IPC: 4 cumulative IPC: 4 (Simulation time: 00 hr 19 min 38 sec)
Heartbeat CPU 0 instructions: 430000001 cycles: 107512055 heartbeat IPC: 4 cumulative IPC: 4 (Simulation time: 00 hr 20 min 16 sec)
Heartbeat CPU 0 instructions: 440000003 cycles: 110019376 heartbeat IPC: 3.988 cumulative IPC: 3.999 (Simulation time: 00 hr 20 min 55 sec)
Heartbeat CPU 0 instructions: 450000003 cycles: 112519376 heartbeat IPC: 4 cumulative IPC: 3.999 (Simulation time: 00 hr 21 min 33 sec)
Heartbeat CPU 0 instructions: 460000003 cycles: 115019376 heartbeat IPC: 4 cumulative IPC: 3.999 (Simulation time: 00 hr 22 min 12 sec)
Heartbeat CPU 0 instructions: 470000003 cycles: 117528391 heartbeat IPC: 3.986 cumulative IPC: 3.999 (Simulation time: 00 hr 22 min 51 sec)
Heartbeat CPU 0 instructions: 480000003 cycles: 120032283 heartbeat IPC: 3.994 cumulative IPC: 3.999 (Simulation time: 00 hr 23 min 30 sec)
Heartbeat CPU 0 instructions: 490000000 cycles: 122532543 heartbeat IPC: 4 cumulative IPC: 3.999 (Simulation time: 00 hr 24 min 10 sec)
Heartbeat CPU 0 instructions: 500000001 cycles: 125032691 heartbeat IPC: 4 cumulative IPC: 3.999 (Simulation time: 00 hr 24 min 49 sec)
Heartbeat CPU 0 instructions: 510000002 cycles: 127533139 heartbeat IPC: 3.999 cumulative IPC: 3.999 (Simulation time: 00 hr 25 min 28 sec)
Heartbeat CPU 0 instructions: 520000002 cycles: 130042401 heartbeat IPC: 3.985 cumulative IPC: 3.999 (Simulation time: 00 hr 26 min 10 sec)
Heartbeat CPU 0 instructions: 530000003 cycles: 132542770 heartbeat IPC: 3.999 cumulative IPC: 3.999 (Simulation time: 00 hr 26 min 52 sec)
Heartbeat CPU 0 instructions: 540000000 cycles: 135053403 heartbeat IPC: 3.983 cumulative IPC: 3.998 (Simulation time: 00 hr 27 min 33 sec)
Heartbeat CPU 0 instructions: 550000001 cycles: 137558403 heartbeat IPC: 3.992 cumulative IPC: 3.998 (Simulation time: 00 hr 28 min 13 sec)
Heartbeat CPU 0 instructions: 560000001 cycles: 140058403 heartbeat IPC: 4 cumulative IPC: 3.998 (Simulation time: 00 hr 28 min 51 sec)
Heartbeat CPU 0 instructions: 570000001 cycles: 142558403 heartbeat IPC: 4 cumulative IPC: 3.998 (Simulation time: 00 hr 29 min 29 sec)
Heartbeat CPU 0 instructions: 580000001 cycles: 145058403 heartbeat IPC: 4 cumulative IPC: 3.998 (Simulation time: 00 hr 30 min 08 sec)
Heartbeat CPU 0 instructions: 590000000 cycles: 147559200 heartbeat IPC: 3.999 cumulative IPC: 3.998 (Simulation time: 00 hr 30 min 46 sec)
Heartbeat CPU 0 instructions: 600000003 cycles: 150059967 heartbeat IPC: 3.999 cumulative IPC: 3.998 (Simulation time: 00 hr 31 min 26 sec)
Heartbeat CPU 0 instructions: 610000002 cycles: 152561053 heartbeat IPC: 3.998 cumulative IPC: 3.998 (Simulation time: 00 hr 32 min 06 sec)
Heartbeat CPU 0 instructions: 620000002 cycles: 155064722 heartbeat IPC: 3.994 cumulative IPC: 3.998 (Simulation time: 00 hr 32 min 46 sec)
Heartbeat CPU 0 instructions: 630000000 cycles: 157566132 heartbeat IPC: 3.998 cumulative IPC: 3.998 (Simulation time: 00 hr 33 min 25 sec)
Heartbeat CPU 0 instructions: 640000002 cycles: 160066279 heartbeat IPC: 4 cumulative IPC: 3.998 (Simulation time: 00 hr 34 min 05 sec)
Heartbeat CPU 0 instructions: 650000003 cycles: 162566658 heartbeat IPC: 3.999 cumulative IPC: 3.998 (Simulation time: 00 hr 34 min 45 sec)
Heartbeat CPU 0 instructions: 660000001 cycles: 165069158 heartbeat IPC: 3.996 cumulative IPC: 3.998 (Simulation time: 00 hr 35 min 25 sec)
Heartbeat CPU 0 instructions: 670000002 cycles: 167569274 heartbeat IPC: 4 cumulative IPC: 3.998 (Simulation time: 00 hr 36 min 04 sec)
Heartbeat CPU 0 instructions: 680000003 cycles: 170069460 heartbeat IPC: 4 cumulative IPC: 3.998 (Simulation time: 00 hr 36 min 44 sec)
Heartbeat CPU 0 instructions: 690000000 cycles: 172597950 heartbeat IPC: 3.955 cumulative IPC: 3.998 (Simulation time: 00 hr 37 min 24 sec)
Heartbeat CPU 0 instructions: 700000000 cycles: 175097950 heartbeat IPC: 4 cumulative IPC: 3.998 (Simulation time: 00 hr 38 min 02 sec)
Heartbeat CPU 0 instructions: 710000002 cycles: 177598152 heartbeat IPC: 4 cumulative IPC: 3.998 (Simulation time: 00 hr 38 min 40 sec)
Heartbeat CPU 0 instructions: 720000002 cycles: 180098324 heartbeat IPC: 4 cumulative IPC: 3.998 (Simulation time: 00 hr 39 min 18 sec)
Heartbeat CPU 0 instructions: 730000002 cycles: 182598324 heartbeat IPC: 4 cumulative IPC: 3.998 (Simulation time: 00 hr 39 min 56 sec)
Heartbeat CPU 0 instructions: 740000002 cycles: 185098324 heartbeat IPC: 4 cumulative IPC: 3.998 (Simulation time: 00 hr 40 min 34 sec)
Heartbeat CPU 0 instructions: 750000002 cycles: 187598767 heartbeat IPC: 3.999 cumulative IPC: 3.998 (Simulation time: 00 hr 41 min 13 sec)
Heartbeat CPU 0 instructions: 760000001 cycles: 190099163 heartbeat IPC: 3.999 cumulative IPC: 3.998 (Simulation time: 00 hr 41 min 50 sec)
Heartbeat CPU 0 instructions: 770000002 cycles: 192599288 heartbeat IPC: 4 cumulative IPC: 3.998 (Simulation time: 00 hr 42 min 29 sec)
Heartbeat CPU 0 instructions: 780000002 cycles: 195099288 heartbeat IPC: 4 cumulative IPC: 3.998 (Simulation time: 00 hr 43 min 07 sec)
Heartbeat CPU 0 instructions: 790000002 cycles: 197599655 heartbeat IPC: 3.999 cumulative IPC: 3.998 (Simulation time: 00 hr 43 min 45 sec)
Heartbeat CPU 0 instructions: 800000003 cycles: 200099960 heartbeat IPC: 4 cumulative IPC: 3.998 (Simulation time: 00 hr 44 min 23 sec)
Heartbeat CPU 0 instructions: 810000001 cycles: 202600712 heartbeat IPC: 3.999 cumulative IPC: 3.998 (Simulation time: 00 hr 45 min 01 sec)
Heartbeat CPU 0 instructions: 820000001 cycles: 205100712 heartbeat IPC: 4 cumulative IPC: 3.998 (Simulation time: 00 hr 45 min 39 sec)
Heartbeat CPU 0 instructions: 830000001 cycles: 207600712 heartbeat IPC: 4 cumulative IPC: 3.998 (Simulation time: 00 hr 46 min 17 sec)
Heartbeat CPU 0 instructions: 840000002 cycles: 210100890 heartbeat IPC: 4 cumulative IPC: 3.998 (Simulation time: 00 hr 46 min 55 sec)
Heartbeat CPU 0 instructions: 850000003 cycles: 212602368 heartbeat IPC: 3.998 cumulative IPC: 3.998 (Simulation time: 00 hr 47 min 34 sec)
Heartbeat CPU 0 instructions: 860000003 cycles: 215102368 heartbeat IPC: 4 cumulative IPC: 3.998 (Simulation time: 00 hr 48 min 12 sec)
Heartbeat CPU 0 instructions: 870000003 cycles: 217602368 heartbeat IPC: 4 cumulative IPC: 3.998 (Simulation time: 00 hr 48 min 50 sec)
Heartbeat CPU 0 instructions: 880000002 cycles: 220103218 heartbeat IPC: 3.999 cumulative IPC: 3.998 (Simulation time: 00 hr 49 min 28 sec)
Heartbeat CPU 0 instructions: 890000002 cycles: 222603218 heartbeat IPC: 4 cumulative IPC: 3.998 (Simulation time: 00 hr 50 min 06 sec)
Heartbeat CPU 0 instructions: 900000002 cycles: 225103466 heartbeat IPC: 4 cumulative IPC: 3.998 (Simulation time: 00 hr 50 min 44 sec)
Heartbeat CPU 0 instructions: 910000000 cycles: 227603860 heartbeat IPC: 3.999 cumulative IPC: 3.998 (Simulation time: 00 hr 51 min 23 sec)
Heartbeat CPU 0 instructions: 920000001 cycles: 230104254 heartbeat IPC: 3.999 cumulative IPC: 3.998 (Simulation time: 00 hr 52 min 01 sec)
Heartbeat CPU 0 instructions: 930000003 cycles: 232604508 heartbeat IPC: 4 cumulative IPC: 3.998 (Simulation time: 00 hr 52 min 39 sec)
Heartbeat CPU 0 instructions: 940000003 cycles: 235104508 heartbeat IPC: 4 cumulative IPC: 3.998 (Simulation time: 00 hr 53 min 18 sec)
Heartbeat CPU 0 instructions: 950000003 cycles: 237604855 heartbeat IPC: 3.999 cumulative IPC: 3.998 (Simulation time: 00 hr 53 min 56 sec)
Heartbeat CPU 0 instructions: 960000000 cycles: 240105622 heartbeat IPC: 3.999 cumulative IPC: 3.998 (Simulation time: 00 hr 54 min 34 sec)
Heartbeat CPU 0 instructions: 970000003 cycles: 242605672 heartbeat IPC: 4 cumulative IPC: 3.998 (Simulation time: 00 hr 55 min 12 sec)
Heartbeat CPU 0 instructions: 980000002 cycles: 245105676 heartbeat IPC: 4 cumulative IPC: 3.998 (Simulation time: 00 hr 55 min 51 sec)
Heartbeat CPU 0 instructions: 990000003 cycles: 247607196 heartbeat IPC: 3.998 cumulative IPC: 3.998 (Simulation time: 00 hr 56 min 29 sec)
Heartbeat CPU 0 instructions: 1000000003 cycles: 250107196 heartbeat IPC: 4 cumulative IPC: 3.998 (Simulation time: 00 hr 57 min 07 sec)
Warmup finished CPU 0 instructions: 1000000003 cycles: 250107197 cumulative IPC: 3.998 (Simulation time: 00 hr 57 min 07 sec)
Warmup complete CPU 0 instructions: 1000000003 cycles: 250107197 cumulative IPC: 3.998 (Simulation time: 00 hr 57 min 07 sec)
Heartbeat CPU 0 instructions: 1010000001 cycles: 253065657 heartbeat IPC: 3.38 cumulative IPC: 3.38 (Simulation time: 00 hr 57 min 52 sec)
Heartbeat CPU 0 instructions: 1020000003 cycles: 255953318 heartbeat IPC: 3.463 cumulative IPC: 3.421 (Simulation time: 00 hr 58 min 38 sec)
Heartbeat CPU 0 instructions: 1030000000 cycles: 258735814 heartbeat IPC: 3.594 cumulative IPC: 3.477 (Simulation time: 00 hr 59 min 25 sec)
Heartbeat CPU 0 instructions: 1040000000 cycles: 261568657 heartbeat IPC: 3.53 cumulative IPC: 3.49 (Simulation time: 01 hr 00 min 14 sec)
Heartbeat CPU 0 instructions: 1050000000 cycles: 264449618 heartbeat IPC: 3.471 cumulative IPC: 3.486 (Simulation time: 01 hr 01 min 02 sec)
Heartbeat CPU 0 instructions: 1060000001 cycles: 267401456 heartbeat IPC: 3.388 cumulative IPC: 3.469 (Simulation time: 01 hr 01 min 49 sec)
Heartbeat CPU 0 instructions: 1070000002 cycles: 270443287 heartbeat IPC: 3.287 cumulative IPC: 3.442 (Simulation time: 01 hr 02 min 35 sec)
Heartbeat CPU 0 instructions: 1080000003 cycles: 273358575 heartbeat IPC: 3.43 cumulative IPC: 3.441 (Simulation time: 01 hr 03 min 20 sec)
Heartbeat CPU 0 instructions: 1090000000 cycles: 276268547 heartbeat IPC: 3.436 cumulative IPC: 3.44 (Simulation time: 01 hr 04 min 06 sec)
Heartbeat CPU 0 instructions: 1100000000 cycles: 279026439 heartbeat IPC: 3.626 cumulative IPC: 3.458 (Simulation time: 01 hr 04 min 51 sec)
Heartbeat CPU 0 instructions: 1110000004 cycles: 281967254 heartbeat IPC: 3.4 cumulative IPC: 3.453 (Simulation time: 01 hr 05 min 36 sec)
Heartbeat CPU 0 instructions: 1120000000 cycles: 284847499 heartbeat IPC: 3.472 cumulative IPC: 3.454 (Simulation time: 01 hr 06 min 21 sec)
Heartbeat CPU 0 instructions: 1130000002 cycles: 287480646 heartbeat IPC: 3.798 cumulative IPC: 3.478 (Simulation time: 01 hr 07 min 05 sec)
Heartbeat CPU 0 instructions: 1140000001 cycles: 290520649 heartbeat IPC: 3.289 cumulative IPC: 3.464 (Simulation time: 01 hr 07 min 51 sec)
Heartbeat CPU 0 instructions: 1150000001 cycles: 293445942 heartbeat IPC: 3.418 cumulative IPC: 3.461 (Simulation time: 01 hr 08 min 37 sec)
Heartbeat CPU 0 instructions: 1160000000 cycles: 296336537 heartbeat IPC: 3.459 cumulative IPC: 3.461 (Simulation time: 01 hr 09 min 22 sec)
Heartbeat CPU 0 instructions: 1170000004 cycles: 299122794 heartbeat IPC: 3.589 cumulative IPC: 3.468 (Simulation time: 01 hr 10 min 06 sec)
Heartbeat CPU 0 instructions: 1180000004 cycles: 301938161 heartbeat IPC: 3.552 cumulative IPC: 3.473 (Simulation time: 01 hr 10 min 51 sec)
Heartbeat CPU 0 instructions: 1190000004 cycles: 304888560 heartbeat IPC: 3.389 cumulative IPC: 3.468 (Simulation time: 01 hr 11 min 36 sec)
Heartbeat CPU 0 instructions: 1200000000 cycles: 307639140 heartbeat IPC: 3.636 cumulative IPC: 3.476 (Simulation time: 01 hr 12 min 21 sec)
Heartbeat CPU 0 instructions: 1210000003 cycles: 310546214 heartbeat IPC: 3.44 cumulative IPC: 3.475 (Simulation time: 01 hr 13 min 06 sec)
Heartbeat CPU 0 instructions: 1220000001 cycles: 314476504 heartbeat IPC: 2.544 cumulative IPC: 3.418 (Simulation time: 01 hr 13 min 59 sec)
Heartbeat CPU 0 instructions: 1230000001 cycles: 318805981 heartbeat IPC: 2.31 cumulative IPC: 3.348 (Simulation time: 01 hr 14 min 56 sec)
Heartbeat CPU 0 instructions: 1240000000 cycles: 324129550 heartbeat IPC: 1.878 cumulative IPC: 3.242 (Simulation time: 01 hr 16 min 01 sec)
Heartbeat CPU 0 instructions: 1250000002 cycles: 329765505 heartbeat IPC: 1.774 cumulative IPC: 3.138 (Simulation time: 01 hr 17 min 07 sec)
Heartbeat CPU 0 instructions: 1260000002 cycles: 332871180 heartbeat IPC: 3.22 cumulative IPC: 3.141 (Simulation time: 01 hr 17 min 53 sec)
Heartbeat CPU 0 instructions: 1270000003 cycles: 335800121 heartbeat IPC: 3.414 cumulative IPC: 3.151 (Simulation time: 01 hr 18 min 39 sec)
Heartbeat CPU 0 instructions: 1280000000 cycles: 338891114 heartbeat IPC: 3.235 cumulative IPC: 3.154 (Simulation time: 01 hr 19 min 25 sec)
Heartbeat CPU 0 instructions: 1290000002 cycles: 341983734 heartbeat IPC: 3.234 cumulative IPC: 3.156 (Simulation time: 01 hr 20 min 12 sec)
Heartbeat CPU 0 instructions: 1300000001 cycles: 345071227 heartbeat IPC: 3.239 cumulative IPC: 3.159 (Simulation time: 01 hr 20 min 59 sec)
Heartbeat CPU 0 instructions: 1310000000 cycles: 348216805 heartbeat IPC: 3.179 cumulative IPC: 3.16 (Simulation time: 01 hr 21 min 46 sec)
Heartbeat CPU 0 instructions: 1320000003 cycles: 354027030 heartbeat IPC: 1.721 cumulative IPC: 3.079 (Simulation time: 01 hr 22 min 54 sec)
Heartbeat CPU 0 instructions: 1330000002 cycles: 359960903 heartbeat IPC: 1.685 cumulative IPC: 3.004 (Simulation time: 01 hr 24 min 00 sec)
Heartbeat CPU 0 instructions: 1340000002 cycles: 365188100 heartbeat IPC: 1.913 cumulative IPC: 2.954 (Simulation time: 01 hr 24 min 55 sec)
Heartbeat CPU 0 instructions: 1350000001 cycles: 368394262 heartbeat IPC: 3.119 cumulative IPC: 2.959 (Simulation time: 01 hr 25 min 36 sec)
Heartbeat CPU 0 instructions: 1360000001 cycles: 371641906 heartbeat IPC: 3.079 cumulative IPC: 2.962 (Simulation time: 01 hr 26 min 12 sec)
Heartbeat CPU 0 instructions: 1370000002 cycles: 374905532 heartbeat IPC: 3.064 cumulative IPC: 2.965 (Simulation time: 01 hr 26 min 42 sec)
Heartbeat CPU 0 instructions: 1380000000 cycles: 380742634 heartbeat IPC: 1.713 cumulative IPC: 2.909 (Simulation time: 01 hr 27 min 30 sec)
Heartbeat CPU 0 instructions: 1390000003 cycles: 386786453 heartbeat IPC: 1.655 cumulative IPC: 2.853 (Simulation time: 01 hr 28 min 21 sec)
Heartbeat CPU 0 instructions: 1400000001 cycles: 391454875 heartbeat IPC: 2.142 cumulative IPC: 2.83 (Simulation time: 01 hr 29 min 09 sec)
Heartbeat CPU 0 instructions: 1410000003 cycles: 394461678 heartbeat IPC: 3.326 cumulative IPC: 2.84 (Simulation time: 01 hr 29 min 43 sec)
Heartbeat CPU 0 instructions: 1420000002 cycles: 397420740 heartbeat IPC: 3.379 cumulative IPC: 2.851 (Simulation time: 01 hr 30 min 21 sec)
Heartbeat CPU 0 instructions: 1430000001 cycles: 400341939 heartbeat IPC: 3.423 cumulative IPC: 2.862 (Simulation time: 01 hr 30 min 55 sec)
Heartbeat CPU 0 instructions: 1440000002 cycles: 403254105 heartbeat IPC: 3.434 cumulative IPC: 2.873 (Simulation time: 01 hr 31 min 22 sec)
Heartbeat CPU 0 instructions: 1450000000 cycles: 406133477 heartbeat IPC: 3.473 cumulative IPC: 2.884 (Simulation time: 01 hr 31 min 58 sec)
Heartbeat CPU 0 instructions: 1460000000 cycles: 409046976 heartbeat IPC: 3.432 cumulative IPC: 2.894 (Simulation time: 01 hr 32 min 34 sec)
Heartbeat CPU 0 instructions: 1470000004 cycles: 412011938 heartbeat IPC: 3.373 cumulative IPC: 2.903 (Simulation time: 01 hr 33 min 13 sec)
Heartbeat CPU 0 instructions: 1480000002 cycles: 414955571 heartbeat IPC: 3.397 cumulative IPC: 2.912 (Simulation time: 01 hr 33 min 49 sec)
Heartbeat CPU 0 instructions: 1490000002 cycles: 417849919 heartbeat IPC: 3.455 cumulative IPC: 2.921 (Simulation time: 01 hr 34 min 20 sec)
Heartbeat CPU 0 instructions: 1500000003 cycles: 420875080 heartbeat IPC: 3.306 cumulative IPC: 2.928 (Simulation time: 01 hr 34 min 45 sec)
Simulation finished CPU 0 instructions: 500000000 cycles: 170767884 cumulative IPC: 2.928 (Simulation time: 01 hr 34 min 45 sec)
Simulation complete CPU 0 instructions: 500000000 cycles: 170767884 cumulative IPC: 2.928 (Simulation time: 01 hr 34 min 45 sec)

ChampSim completed all CPUs

=== Simulation ===
CPU 0 runs traces/600.perlbench_s-210B.champsimtrace.xz
Region of Interest Statistics

CPU 0 cumulative IPC: 2.928 instructions: 500000000 cycles: 170767884
CPU 0 Branch Prediction Accuracy: 98.19% MPKI: 2.724 Average ROB Occupancy at Mispredict: 88.06
Branch type MPKI
BRANCH_DIRECT_JUMP: 0.0578
BRANCH_INDIRECT: 0.296
BRANCH_CONDITIONAL: 2.19
BRANCH_DIRECT_CALL: 0.0136
BRANCH_INDIRECT_CALL: 0.154
BRANCH_RETURN: 0.0117

LLC TOTAL        ACCESS:     354613 HIT:     107130 MISS:     247483
LLC LOAD         ACCESS:     284900 HIT:      63072 MISS:     221828
LLC RFO          ACCESS:      16359 HIT:       4891 MISS:      11468
LLC PREFETCH     ACCESS:          0 HIT:          0 MISS:          0
LLC WRITE        ACCESS:      36182 HIT:      36035 MISS:        147
LLC TRANSLATION  ACCESS:      17172 HIT:       3132 MISS:      14040
LLC PREFETCH REQUESTED:          0 ISSUED:          0 USEFUL:          0 USELESS:          0
LLC AVERAGE MISS LATENCY: 209.8 cycles
cpu0_DTLB TOTAL        ACCESS:  115524291 HIT:  114695366 MISS:     828925
cpu0_DTLB LOAD         ACCESS:  115524291 HIT:  114695366 MISS:     828925
cpu0_DTLB RFO          ACCESS:          0 HIT:          0 MISS:          0
cpu0_DTLB PREFETCH     ACCESS:          0 HIT:          0 MISS:          0
cpu0_DTLB WRITE        ACCESS:          0 HIT:          0 MISS:          0
cpu0_DTLB TRANSLATION  ACCESS:          0 HIT:          0 MISS:          0
cpu0_DTLB PREFETCH REQUESTED:          0 ISSUED:          0 USEFUL:          0 USELESS:          0
cpu0_DTLB AVERAGE MISS LATENCY: 8.933 cycles
cpu0_ITLB TOTAL        ACCESS:    6561983 HIT:    6370233 MISS:     191750
cpu0_ITLB LOAD         ACCESS:    6561983 HIT:    6370233 MISS:     191750
cpu0_ITLB RFO          ACCESS:          0 HIT:          0 MISS:          0
cpu0_ITLB PREFETCH     ACCESS:          0 HIT:          0 MISS:          0
cpu0_ITLB WRITE        ACCESS:          0 HIT:          0 MISS:          0
cpu0_ITLB TRANSLATION  ACCESS:          0 HIT:          0 MISS:          0
cpu0_ITLB PREFETCH REQUESTED:          0 ISSUED:          0 USEFUL:          0 USELESS:          0
cpu0_ITLB AVERAGE MISS LATENCY: 1.934 cycles
cpu0_L1D TOTAL        ACCESS:  165582559 HIT:  164415360 MISS:    1167199
cpu0_L1D LOAD         ACCESS:   62890164 HIT:   61910768 MISS:     979396
cpu0_L1D RFO          ACCESS:          0 HIT:          0 MISS:          0
cpu0_L1D PREFETCH     ACCESS:          0 HIT:          0 MISS:          0
cpu0_L1D WRITE        ACCESS:  102665587 HIT:  102502339 MISS:     163248
cpu0_L1D TRANSLATION  ACCESS:      26808 HIT:       2253 MISS:      24555
cpu0_L1D PREFETCH REQUESTED:          0 ISSUED:          0 USEFUL:          0 USELESS:          0
cpu0_L1D AVERAGE MISS LATENCY: 48.46 cycles
cpu0_L1I TOTAL        ACCESS:    7340483 HIT:    6171533 MISS:    1168950
cpu0_L1I LOAD         ACCESS:    7340483 HIT:    6171533 MISS:    1168950
cpu0_L1I RFO          ACCESS:          0 HIT:          0 MISS:          0
cpu0_L1I PREFETCH     ACCESS:          0 HIT:          0 MISS:          0
cpu0_L1I WRITE        ACCESS:          0 HIT:          0 MISS:          0
cpu0_L1I TRANSLATION  ACCESS:          0 HIT:          0 MISS:          0
cpu0_L1I PREFETCH REQUESTED:          0 ISSUED:          0 USEFUL:          0 USELESS:          0
cpu0_L1I AVERAGE MISS LATENCY: 9.172 cycles
cpu0_L2C TOTAL        ACCESS:    1565488 HIT:    1246726 MISS:     318762
cpu0_L2C LOAD         ACCESS:    1387102 HIT:    1102202 MISS:     284900
cpu0_L2C RFO          ACCESS:      48895 HIT:      32536 MISS:      16359
cpu0_L2C PREFETCH     ACCESS:          0 HIT:          0 MISS:          0
cpu0_L2C WRITE        ACCESS:     105013 HIT:     104682 MISS:        331
cpu0_L2C TRANSLATION  ACCESS:      24478 HIT:       7306 MISS:      17172
cpu0_L2C PREFETCH REQUESTED:          0 ISSUED:          0 USEFUL:          0 USELESS:          0
cpu0_L2C AVERAGE MISS LATENCY: 183.6 cycles
cpu0_STLB TOTAL        ACCESS:     626798 HIT:     603311 MISS:      23487
cpu0_STLB LOAD         ACCESS:     626798 HIT:     603311 MISS:      23487
cpu0_STLB RFO          ACCESS:          0 HIT:          0 MISS:          0
cpu0_STLB PREFETCH     ACCESS:          0 HIT:          0 MISS:          0
cpu0_STLB WRITE        ACCESS:          0 HIT:          0 MISS:          0
cpu0_STLB TRANSLATION  ACCESS:          0 HIT:          0 MISS:          0
cpu0_STLB PREFETCH REQUESTED:          0 ISSUED:          0 USEFUL:          0 USELESS:          0
cpu0_STLB AVERAGE MISS LATENCY: 173.4 cycles

DRAM Statistics

Channel 0 RQ ROW_BUFFER_HIT:      56995
  ROW_BUFFER_MISS:     190332
 AVG DBUS CONGESTED CYCLE: 3.824
WQ ROW_BUFFER_HIT: Channel 0 
  ROW_BUFFER_MISS:      10220
  FULL:      15308
