WARNING: physical memory size is smaller than virtual memory size.

*** ChampSim Multicore Out-of-Order Simulator ***
Warmup Instructions: 1000000000
Simulation Instructions: 500000000
Number of CPUs: 1
Page size: 4096

Off-chip DRAM Size: 4 GiB Channels: 1 Width: 64-bit Data Race: 3200 MT/s
Heartbeat CPU 0 instructions: 10000000 cycles: 2500066 heartbeat IPC: 4 cumulative IPC: 4 (Simulation time: 00 hr 00 min 18 sec)
Heartbeat CPU 0 instructions: 20000000 cycles: 5000066 heartbeat IPC: 4 cumulative IPC: 4 (Simulation time: 00 hr 00 min 36 sec)
Heartbeat CPU 0 instructions: 30000000 cycles: 7500066 heartbeat IPC: 4 cumulative IPC: 4 (Simulation time: 00 hr 00 min 55 sec)
Heartbeat CPU 0 instructions: 40000000 cycles: 10000066 heartbeat IPC: 4 cumulative IPC: 4 (Simulation time: 00 hr 01 min 15 sec)
Heartbeat CPU 0 instructions: 50000002 cycles: 12500112 heartbeat IPC: 4 cumulative IPC: 4 (Simulation time: 00 hr 01 min 36 sec)
Heartbeat CPU 0 instructions: 60000000 cycles: 15000218 heartbeat IPC: 4 cumulative IPC: 4 (Simulation time: 00 hr 01 min 57 sec)
Heartbeat CPU 0 instructions: 70000000 cycles: 17500218 heartbeat IPC: 4 cumulative IPC: 4 (Simulation time: 00 hr 02 min 18 sec)
Heartbeat CPU 0 instructions: 80000000 cycles: 20000218 heartbeat IPC: 4 cumulative IPC: 4 (Simulation time: 00 hr 02 min 40 sec)
Heartbeat CPU 0 instructions: 90000000 cycles: 22500218 heartbeat IPC: 4 cumulative IPC: 4 (Simulation time: 00 hr 03 min 01 sec)
Heartbeat CPU 0 instructions: 100000001 cycles: 25000533 heartbeat IPC: 3.999 cumulative IPC: 4 (Simulation time: 00 hr 03 min 23 sec)
Heartbeat CPU 0 instructions: 110000001 cycles: 27500533 heartbeat IPC: 4 cumulative IPC: 4 (Simulation time: 00 hr 03 min 45 sec)
Heartbeat CPU 0 instructions: 120000001 cycles: 30000533 heartbeat IPC: 4 cumulative IPC: 4 (Simulation time: 00 hr 04 min 06 sec)
Heartbeat CPU 0 instructions: 130000003 cycles: 32500581 heartbeat IPC: 4 cumulative IPC: 4 (Simulation time: 00 hr 04 min 28 sec)
Heartbeat CPU 0 instructions: 140000001 cycles: 35000627 heartbeat IPC: 4 cumulative IPC: 4 (Simulation time: 00 hr 04 min 49 sec)
Heartbeat CPU 0 instructions: 150000001 cycles: 37500627 heartbeat IPC: 4 cumulative IPC: 4 (Simulation time: 00 hr 05 min 11 sec)
Heartbeat CPU 0 instructions: 160000001 cycles: 40000627 heartbeat IPC: 4 cumulative IPC: 4 (Simulation time: 00 hr 05 min 33 sec)
Heartbeat CPU 0 instructions: 170000000 cycles: 42500955 heartbeat IPC: 3.999 cumulative IPC: 4 (Simulation time: 00 hr 05 min 55 sec)
Heartbeat CPU 0 instructions: 180000000 cycles: 45000955 heartbeat IPC: 4 cumulative IPC: 4 (Simulation time: 00 hr 06 min 17 sec)
Heartbeat CPU 0 instructions: 190000000 cycles: 47500955 heartbeat IPC: 4 cumulative IPC: 4 (Simulation time: 00 hr 06 min 38 sec)
Heartbeat CPU 0 instructions: 200000000 cycles: 50000987 heartbeat IPC: 4 cumulative IPC: 4 (Simulation time: 00 hr 06 min 59 sec)
Heartbeat CPU 0 instructions: 210000000 cycles: 52500987 heartbeat IPC: 4 cumulative IPC: 4 (Simulation time: 00 hr 07 min 21 sec)
Heartbeat CPU 0 instructions: 220000000 cycles: 55000987 heartbeat IPC: 4 cumulative IPC: 4 (Simulation time: 00 hr 07 min 42 sec)
Heartbeat CPU 0 instructions: 230000000 cycles: 57500987 heartbeat IPC: 4 cumulative IPC: 4 (Simulation time: 00 hr 08 min 04 sec)
Heartbeat CPU 0 instructions: 240000000 cycles: 60001145 heartbeat IPC: 4 cumulative IPC: 4 (Simulation time: 00 hr 08 min 26 sec)
Heartbeat CPU 0 instructions: 250000003 cycles: 62501324 heartbeat IPC: 4 cumulative IPC: 4 (Simulation time: 00 hr 08 min 48 sec)
Heartbeat CPU 0 instructions: 260000003 cycles: 65001324 heartbeat IPC: 4 cumulative IPC: 4 (Simulation time: 00 hr 09 min 09 sec)
Heartbeat CPU 0 instructions: 270000003 cycles: 67501324 heartbeat IPC: 4 cumulative IPC: 4 (Simulation time: 00 hr 09 min 31 sec)
Heartbeat CPU 0 instructions: 280000003 cycles: 70001324 heartbeat IPC: 4 cumulative IPC: 4 (Simulation time: 00 hr 09 min 53 sec)
Heartbeat CPU 0 instructions: 290000003 cycles: 72501468 heartbeat IPC: 4 cumulative IPC: 4 (Simulation time: 00 hr 10 min 15 sec)
Heartbeat CPU 0 instructions: 300000003 cycles: 75001468 heartbeat IPC: 4 cumulative IPC: 4 (Simulation time: 00 hr 10 min 37 sec)
Heartbeat CPU 0 instructions: 310000002 cycles: 77501663 heartbeat IPC: 4 cumulative IPC: 4 (Simulation time: 00 hr 10 min 59 sec)
Heartbeat CPU 0 instructions: 320000003 cycles: 80001910 heartbeat IPC: 4 cumulative IPC: 4 (Simulation time: 00 hr 11 min 21 sec)
Heartbeat CPU 0 instructions: 330000002 cycles: 82504541 heartbeat IPC: 3.996 cumulative IPC: 4 (Simulation time: 00 hr 11 min 43 sec)
Heartbeat CPU 0 instructions: 340000000 cycles: 85004660 heartbeat IPC: 4 cumulative IPC: 4 (Simulation time: 00 hr 12 min 04 sec)
Heartbeat CPU 0 instructions: 350000000 cycles: 87504660 heartbeat IPC: 4 cumulative IPC: 4 (Simulation time: 00 hr 12 min 26 sec)
Heartbeat CPU 0 instructions: 360000001 cycles: 90011966 heartbeat IPC: 3.988 cumulative IPC: 3.999 (Simulation time: 00 hr 12 min 48 sec)
Heartbeat CPU 0 instructions: 370000001 cycles: 92511966 heartbeat IPC: 4 cumulative IPC: 3.999 (Simulation time: 00 hr 13 min 09 sec)
Heartbeat CPU 0 instructions: 380000002 cycles: 95011979 heartbeat IPC: 4 cumulative IPC: 3.999 (Simulation time: 00 hr 13 min 31 sec)
Heartbeat CPU 0 instructions: 390000003 cycles: 97511993 heartbeat IPC: 4 cumulative IPC: 4 (Simulation time: 00 hr 13 min 53 sec)
Heartbeat CPU 0 instructions: 400000003 cycles: 100011993 heartbeat IPC: 4 cumulative IPC: 4 (Simulation time: 00 hr 14 min 15 sec)
Heartbeat CPU 0 instructions: 410000003 cycles: 102511993 heartbeat IPC: 4 cumulative IPC: 4 (Simulation time: 00 hr 14 min 37 sec)
Heartbeat CPU 0 instructions: 420000003 cycles: 105012044 heartbeat IPC: 4 cumulative IPC: 4 (Simulation time: 00 hr 14 min 58 sec)
Heartbeat CPU 0 instructions: 430000001 cycles: 107512085 heartbeat IPC: 4 cumulative IPC: 4 (Simulation time: 00 hr 15 min 20 sec)
Heartbeat CPU 0 instructions: 440000003 cycles: 110019426 heartbeat IPC: 3.988 cumulative IPC: 3.999 (Simulation time: 00 hr 15 min 42 sec)
Heartbeat CPU 0 instructions: 450000003 cycles: 112519426 heartbeat IPC: 4 cumulative IPC: 3.999 (Simulation time: 00 hr 16 min 04 sec)
Heartbeat CPU 0 instructions: 460000003 cycles: 115019426 heartbeat IPC: 4 cumulative IPC: 3.999 (Simulation time: 00 hr 16 min 26 sec)
Heartbeat CPU 0 instructions: 470000003 cycles: 117528674 heartbeat IPC: 3.985 cumulative IPC: 3.999 (Simulation time: 00 hr 16 min 48 sec)
Heartbeat CPU 0 instructions: 480000003 cycles: 120032543 heartbeat IPC: 3.994 cumulative IPC: 3.999 (Simulation time: 00 hr 17 min 10 sec)
Heartbeat CPU 0 instructions: 490000000 cycles: 122532802 heartbeat IPC: 4 cumulative IPC: 3.999 (Simulation time: 00 hr 17 min 33 sec)
Heartbeat CPU 0 instructions: 500000001 cycles: 125032950 heartbeat IPC: 4 cumulative IPC: 3.999 (Simulation time: 00 hr 17 min 55 sec)
Heartbeat CPU 0 instructions: 510000002 cycles: 127533409 heartbeat IPC: 3.999 cumulative IPC: 3.999 (Simulation time: 00 hr 18 min 18 sec)
Heartbeat CPU 0 instructions: 520000002 cycles: 130042664 heartbeat IPC: 3.985 cumulative IPC: 3.999 (Simulation time: 00 hr 18 min 41 sec)
Heartbeat CPU 0 instructions: 530000003 cycles: 132543033 heartbeat IPC: 3.999 cumulative IPC: 3.999 (Simulation time: 00 hr 19 min 05 sec)
Heartbeat CPU 0 instructions: 540000000 cycles: 135053703 heartbeat IPC: 3.983 cumulative IPC: 3.998 (Simulation time: 00 hr 19 min 28 sec)
Heartbeat CPU 0 instructions: 550000002 cycles: 137558578 heartbeat IPC: 3.992 cumulative IPC: 3.998 (Simulation time: 00 hr 19 min 51 sec)
Heartbeat CPU 0 instructions: 560000002 cycles: 140058578 heartbeat IPC: 4 cumulative IPC: 3.998 (Simulation time: 00 hr 20 min 13 sec)
Heartbeat CPU 0 instructions: 570000002 cycles: 142558578 heartbeat IPC: 4 cumulative IPC: 3.998 (Simulation time: 00 hr 20 min 35 sec)
Heartbeat CPU 0 instructions: 580000002 cycles: 145058578 heartbeat IPC: 4 cumulative IPC: 3.998 (Simulation time: 00 hr 20 min 57 sec)
Heartbeat CPU 0 instructions: 590000000 cycles: 147559356 heartbeat IPC: 3.999 cumulative IPC: 3.998 (Simulation time: 00 hr 21 min 20 sec)
Heartbeat CPU 0 instructions: 600000003 cycles: 150060097 heartbeat IPC: 3.999 cumulative IPC: 3.998 (Simulation time: 00 hr 21 min 43 sec)
Heartbeat CPU 0 instructions: 610000002 cycles: 152561164 heartbeat IPC: 3.998 cumulative IPC: 3.998 (Simulation time: 00 hr 22 min 06 sec)
Heartbeat CPU 0 instructions: 620000001 cycles: 155064781 heartbeat IPC: 3.994 cumulative IPC: 3.998 (Simulation time: 00 hr 22 min 29 sec)
Heartbeat CPU 0 instructions: 630000000 cycles: 157566177 heartbeat IPC: 3.998 cumulative IPC: 3.998 (Simulation time: 00 hr 22 min 51 sec)
Heartbeat CPU 0 instructions: 640000002 cycles: 160066315 heartbeat IPC: 4 cumulative IPC: 3.998 (Simulation time: 00 hr 23 min 14 sec)
Heartbeat CPU 0 instructions: 650000000 cycles: 162566682 heartbeat IPC: 3.999 cumulative IPC: 3.998 (Simulation time: 00 hr 23 min 38 sec)
Heartbeat CPU 0 instructions: 660000002 cycles: 165069133 heartbeat IPC: 3.996 cumulative IPC: 3.998 (Simulation time: 00 hr 24 min 01 sec)
Heartbeat CPU 0 instructions: 670000002 cycles: 167569235 heartbeat IPC: 4 cumulative IPC: 3.998 (Simulation time: 00 hr 24 min 23 sec)
Heartbeat CPU 0 instructions: 680000003 cycles: 170069403 heartbeat IPC: 4 cumulative IPC: 3.998 (Simulation time: 00 hr 24 min 47 sec)
Heartbeat CPU 0 instructions: 690000000 cycles: 172597765 heartbeat IPC: 3.955 cumulative IPC: 3.998 (Simulation time: 00 hr 25 min 10 sec)
Heartbeat CPU 0 instructions: 700000000 cycles: 175097765 heartbeat IPC: 4 cumulative IPC: 3.998 (Simulation time: 00 hr 25 min 31 sec)
Heartbeat CPU 0 instructions: 710000002 cycles: 177597968 heartbeat IPC: 4 cumulative IPC: 3.998 (Simulation time: 00 hr 25 min 53 sec)
Heartbeat CPU 0 instructions: 720000002 cycles: 180098145 heartbeat IPC: 4 cumulative IPC: 3.998 (Simulation time: 00 hr 26 min 15 sec)
Heartbeat CPU 0 instructions: 730000002 cycles: 182598145 heartbeat IPC: 4 cumulative IPC: 3.998 (Simulation time: 00 hr 26 min 37 sec)
Heartbeat CPU 0 instructions: 740000002 cycles: 185098145 heartbeat IPC: 4 cumulative IPC: 3.998 (Simulation time: 00 hr 26 min 59 sec)
Heartbeat CPU 0 instructions: 750000002 cycles: 187598588 heartbeat IPC: 3.999 cumulative IPC: 3.998 (Simulation time: 00 hr 27 min 21 sec)
Heartbeat CPU 0 instructions: 760000001 cycles: 190098984 heartbeat IPC: 3.999 cumulative IPC: 3.998 (Simulation time: 00 hr 27 min 43 sec)
Heartbeat CPU 0 instructions: 770000002 cycles: 192599110 heartbeat IPC: 4 cumulative IPC: 3.998 (Simulation time: 00 hr 28 min 05 sec)
Heartbeat CPU 0 instructions: 780000002 cycles: 195099110 heartbeat IPC: 4 cumulative IPC: 3.998 (Simulation time: 00 hr 28 min 28 sec)
Heartbeat CPU 0 instructions: 790000002 cycles: 197599483 heartbeat IPC: 3.999 cumulative IPC: 3.998 (Simulation time: 00 hr 28 min 50 sec)
Heartbeat CPU 0 instructions: 800000003 cycles: 200099789 heartbeat IPC: 4 cumulative IPC: 3.998 (Simulation time: 00 hr 29 min 12 sec)
Heartbeat CPU 0 instructions: 810000001 cycles: 202600536 heartbeat IPC: 3.999 cumulative IPC: 3.998 (Simulation time: 00 hr 29 min 33 sec)
Heartbeat CPU 0 instructions: 820000001 cycles: 205100536 heartbeat IPC: 4 cumulative IPC: 3.998 (Simulation time: 00 hr 29 min 55 sec)
Heartbeat CPU 0 instructions: 830000001 cycles: 207600536 heartbeat IPC: 4 cumulative IPC: 3.998 (Simulation time: 00 hr 30 min 17 sec)
Heartbeat CPU 0 instructions: 840000002 cycles: 210100716 heartbeat IPC: 4 cumulative IPC: 3.998 (Simulation time: 00 hr 30 min 39 sec)
Heartbeat CPU 0 instructions: 850000003 cycles: 212602193 heartbeat IPC: 3.998 cumulative IPC: 3.998 (Simulation time: 00 hr 31 min 01 sec)
Heartbeat CPU 0 instructions: 860000003 cycles: 215102193 heartbeat IPC: 4 cumulative IPC: 3.998 (Simulation time: 00 hr 31 min 23 sec)
Heartbeat CPU 0 instructions: 870000003 cycles: 217602193 heartbeat IPC: 4 cumulative IPC: 3.998 (Simulation time: 00 hr 31 min 45 sec)
Heartbeat CPU 0 instructions: 880000002 cycles: 220103044 heartbeat IPC: 3.999 cumulative IPC: 3.998 (Simulation time: 00 hr 32 min 06 sec)
Heartbeat CPU 0 instructions: 890000002 cycles: 222603044 heartbeat IPC: 4 cumulative IPC: 3.998 (Simulation time: 00 hr 32 min 29 sec)
Heartbeat CPU 0 instructions: 900000002 cycles: 225103293 heartbeat IPC: 4 cumulative IPC: 3.998 (Simulation time: 00 hr 32 min 50 sec)
Heartbeat CPU 0 instructions: 910000000 cycles: 227603685 heartbeat IPC: 3.999 cumulative IPC: 3.998 (Simulation time: 00 hr 33 min 13 sec)
Heartbeat CPU 0 instructions: 920000001 cycles: 230104080 heartbeat IPC: 3.999 cumulative IPC: 3.998 (Simulation time: 00 hr 33 min 35 sec)
Heartbeat CPU 0 instructions: 930000003 cycles: 232604335 heartbeat IPC: 4 cumulative IPC: 3.998 (Simulation time: 00 hr 33 min 57 sec)
Heartbeat CPU 0 instructions: 940000003 cycles: 235104335 heartbeat IPC: 4 cumulative IPC: 3.998 (Simulation time: 00 hr 34 min 19 sec)
Heartbeat CPU 0 instructions: 950000003 cycles: 237604682 heartbeat IPC: 3.999 cumulative IPC: 3.998 (Simulation time: 00 hr 34 min 41 sec)
Heartbeat CPU 0 instructions: 960000000 cycles: 240105455 heartbeat IPC: 3.999 cumulative IPC: 3.998 (Simulation time: 00 hr 35 min 03 sec)
Heartbeat CPU 0 instructions: 970000003 cycles: 242605507 heartbeat IPC: 4 cumulative IPC: 3.998 (Simulation time: 00 hr 35 min 24 sec)
Heartbeat CPU 0 instructions: 980000002 cycles: 245105511 heartbeat IPC: 4 cumulative IPC: 3.998 (Simulation time: 00 hr 35 min 46 sec)
Heartbeat CPU 0 instructions: 990000003 cycles: 247607027 heartbeat IPC: 3.998 cumulative IPC: 3.998 (Simulation time: 00 hr 36 min 08 sec)
Heartbeat CPU 0 instructions: 1000000003 cycles: 250107027 heartbeat IPC: 4 cumulative IPC: 3.998 (Simulation time: 00 hr 36 min 30 sec)
Warmup finished CPU 0 instructions: 1000000003 cycles: 250107028 cumulative IPC: 3.998 (Simulation time: 00 hr 36 min 30 sec)
Warmup complete CPU 0 instructions: 1000000003 cycles: 250107028 cumulative IPC: 3.998 (Simulation time: 00 hr 36 min 30 sec)
Heartbeat CPU 0 instructions: 1010000001 cycles: 253053062 heartbeat IPC: 3.394 cumulative IPC: 3.394 (Simulation time: 00 hr 36 min 56 sec)
Heartbeat CPU 0 instructions: 1020000003 cycles: 255919464 heartbeat IPC: 3.489 cumulative IPC: 3.441 (Simulation time: 00 hr 37 min 22 sec)
Heartbeat CPU 0 instructions: 1030000000 cycles: 258724856 heartbeat IPC: 3.565 cumulative IPC: 3.481 (Simulation time: 00 hr 37 min 48 sec)
Heartbeat CPU 0 instructions: 1040000000 cycles: 261561796 heartbeat IPC: 3.525 cumulative IPC: 3.492 (Simulation time: 00 hr 38 min 14 sec)
Heartbeat CPU 0 instructions: 1050000000 cycles: 264425888 heartbeat IPC: 3.492 cumulative IPC: 3.492 (Simulation time: 00 hr 38 min 39 sec)
Heartbeat CPU 0 instructions: 1060000001 cycles: 267358352 heartbeat IPC: 3.41 cumulative IPC: 3.478 (Simulation time: 00 hr 39 min 05 sec)
Heartbeat CPU 0 instructions: 1070000000 cycles: 270372258 heartbeat IPC: 3.318 cumulative IPC: 3.454 (Simulation time: 00 hr 39 min 31 sec)
Heartbeat CPU 0 instructions: 1080000003 cycles: 273277503 heartbeat IPC: 3.442 cumulative IPC: 3.453 (Simulation time: 00 hr 39 min 57 sec)
Heartbeat CPU 0 instructions: 1090000000 cycles: 276188455 heartbeat IPC: 3.435 cumulative IPC: 3.451 (Simulation time: 00 hr 40 min 24 sec)
Heartbeat CPU 0 instructions: 1100000000 cycles: 278999743 heartbeat IPC: 3.557 cumulative IPC: 3.461 (Simulation time: 00 hr 40 min 49 sec)
Heartbeat CPU 0 instructions: 1110000001 cycles: 281927470 heartbeat IPC: 3.416 cumulative IPC: 3.457 (Simulation time: 00 hr 41 min 15 sec)
Heartbeat CPU 0 instructions: 1120000000 cycles: 284785638 heartbeat IPC: 3.499 cumulative IPC: 3.46 (Simulation time: 00 hr 41 min 41 sec)
Heartbeat CPU 0 instructions: 1130000002 cycles: 287406676 heartbeat IPC: 3.815 cumulative IPC: 3.485 (Simulation time: 00 hr 42 min 06 sec)
Heartbeat CPU 0 instructions: 1140000002 cycles: 290393089 heartbeat IPC: 3.348 cumulative IPC: 3.475 (Simulation time: 00 hr 42 min 33 sec)
Heartbeat CPU 0 instructions: 1150000000 cycles: 293288723 heartbeat IPC: 3.453 cumulative IPC: 3.474 (Simulation time: 00 hr 42 min 58 sec)
Heartbeat CPU 0 instructions: 1160000000 cycles: 296161301 heartbeat IPC: 3.481 cumulative IPC: 3.474 (Simulation time: 00 hr 43 min 24 sec)
Heartbeat CPU 0 instructions: 1170000004 cycles: 298939317 heartbeat IPC: 3.6 cumulative IPC: 3.481 (Simulation time: 00 hr 43 min 50 sec)
Heartbeat CPU 0 instructions: 1180000004 cycles: 301793565 heartbeat IPC: 3.504 cumulative IPC: 3.483 (Simulation time: 00 hr 44 min 15 sec)
Heartbeat CPU 0 instructions: 1190000004 cycles: 304743788 heartbeat IPC: 3.39 cumulative IPC: 3.478 (Simulation time: 00 hr 44 min 41 sec)
Heartbeat CPU 0 instructions: 1200000000 cycles: 307479375 heartbeat IPC: 3.656 cumulative IPC: 3.486 (Simulation time: 00 hr 45 min 07 sec)
Heartbeat CPU 0 instructions: 1210000003 cycles: 310367506 heartbeat IPC: 3.462 cumulative IPC: 3.485 (Simulation time: 00 hr 45 min 33 sec)
Heartbeat CPU 0 instructions: 1220000002 cycles: 314531681 heartbeat IPC: 2.401 cumulative IPC: 3.415 (Simulation time: 00 hr 46 min 03 sec)
Heartbeat CPU 0 instructions: 1230000001 cycles: 319202906 heartbeat IPC: 2.141 cumulative IPC: 3.329 (Simulation time: 00 hr 46 min 35 sec)
Heartbeat CPU 0 instructions: 1240000000 cycles: 325403892 heartbeat IPC: 1.613 cumulative IPC: 3.187 (Simulation time: 00 hr 47 min 13 sec)
Heartbeat CPU 0 instructions: 1250000002 cycles: 331567593 heartbeat IPC: 1.622 cumulative IPC: 3.069 (Simulation time: 00 hr 47 min 50 sec)
Heartbeat CPU 0 instructions: 1260000002 cycles: 334691091 heartbeat IPC: 3.202 cumulative IPC: 3.074 (Simulation time: 00 hr 48 min 17 sec)
Heartbeat CPU 0 instructions: 1270000002 cycles: 337628399 heartbeat IPC: 3.404 cumulative IPC: 3.085 (Simulation time: 00 hr 48 min 43 sec)
Heartbeat CPU 0 instructions: 1280000001 cycles: 340761251 heartbeat IPC: 3.192 cumulative IPC: 3.089 (Simulation time: 00 hr 49 min 11 sec)
Heartbeat CPU 0 instructions: 1290000002 cycles: 343855682 heartbeat IPC: 3.232 cumulative IPC: 3.093 (Simulation time: 00 hr 49 min 38 sec)
Heartbeat CPU 0 instructions: 1300000001 cycles: 346964591 heartbeat IPC: 3.217 cumulative IPC: 3.097 (Simulation time: 00 hr 50 min 05 sec)
Heartbeat CPU 0 instructions: 1310000000 cycles: 350134831 heartbeat IPC: 3.154 cumulative IPC: 3.099 (Simulation time: 00 hr 50 min 32 sec)
Heartbeat CPU 0 instructions: 1320000000 cycles: 356834146 heartbeat IPC: 1.493 cumulative IPC: 2.998 (Simulation time: 00 hr 51 min 11 sec)
Heartbeat CPU 0 instructions: 1330000002 cycles: 363852880 heartbeat IPC: 1.425 cumulative IPC: 2.901 (Simulation time: 00 hr 51 min 51 sec)
Heartbeat CPU 0 instructions: 1340000003 cycles: 369477500 heartbeat IPC: 1.778 cumulative IPC: 2.848 (Simulation time: 00 hr 52 min 25 sec)
Heartbeat CPU 0 instructions: 1350000001 cycles: 372710074 heartbeat IPC: 3.094 cumulative IPC: 2.855 (Simulation time: 00 hr 52 min 51 sec)
Heartbeat CPU 0 instructions: 1360000001 cycles: 376001884 heartbeat IPC: 3.038 cumulative IPC: 2.86 (Simulation time: 00 hr 53 min 15 sec)
Heartbeat CPU 0 instructions: 1370000002 cycles: 379299052 heartbeat IPC: 3.033 cumulative IPC: 2.864 (Simulation time: 00 hr 53 min 39 sec)
Heartbeat CPU 0 instructions: 1380000000 cycles: 385964874 heartbeat IPC: 1.5 cumulative IPC: 2.797 (Simulation time: 00 hr 54 min 14 sec)
Heartbeat CPU 0 instructions: 1390000003 cycles: 393102046 heartbeat IPC: 1.401 cumulative IPC: 2.727 (Simulation time: 00 hr 54 min 49 sec)
Heartbeat CPU 0 instructions: 1400000001 cycles: 398013187 heartbeat IPC: 2.036 cumulative IPC: 2.704 (Simulation time: 00 hr 55 min 18 sec)
Heartbeat CPU 0 instructions: 1410000003 cycles: 400981000 heartbeat IPC: 3.369 cumulative IPC: 2.717 (Simulation time: 00 hr 55 min 41 sec)
Heartbeat CPU 0 instructions: 1420000002 cycles: 403939350 heartbeat IPC: 3.38 cumulative IPC: 2.73 (Simulation time: 00 hr 56 min 04 sec)
Heartbeat CPU 0 instructions: 1430000000 cycles: 406834799 heartbeat IPC: 3.454 cumulative IPC: 2.744 (Simulation time: 00 hr 56 min 27 sec)
Heartbeat CPU 0 instructions: 1440000001 cycles: 409721345 heartbeat IPC: 3.464 cumulative IPC: 2.757 (Simulation time: 00 hr 56 min 49 sec)
Heartbeat CPU 0 instructions: 1450000000 cycles: 412611904 heartbeat IPC: 3.46 cumulative IPC: 2.769 (Simulation time: 00 hr 57 min 12 sec)
Heartbeat CPU 0 instructions: 1460000000 cycles: 415560856 heartbeat IPC: 3.391 cumulative IPC: 2.78 (Simulation time: 00 hr 57 min 35 sec)
Heartbeat CPU 0 instructions: 1470000001 cycles: 418525124 heartbeat IPC: 3.374 cumulative IPC: 2.791 (Simulation time: 00 hr 57 min 57 sec)
Heartbeat CPU 0 instructions: 1480000002 cycles: 421484326 heartbeat IPC: 3.379 cumulative IPC: 2.801 (Simulation time: 00 hr 58 min 18 sec)
Heartbeat CPU 0 instructions: 1490000002 cycles: 424391791 heartbeat IPC: 3.439 cumulative IPC: 2.811 (Simulation time: 00 hr 58 min 39 sec)
Heartbeat CPU 0 instructions: 1500000001 cycles: 427419003 heartbeat IPC: 3.303 cumulative IPC: 2.82 (Simulation time: 00 hr 59 min 00 sec)
Simulation finished CPU 0 instructions: 500000003 cycles: 177311977 cumulative IPC: 2.82 (Simulation time: 00 hr 59 min 00 sec)
Simulation complete CPU 0 instructions: 500000003 cycles: 177311977 cumulative IPC: 2.82 (Simulation time: 00 hr 59 min 00 sec)

ChampSim completed all CPUs

=== Simulation ===
CPU 0 runs traces/600.perlbench_s-210B.champsimtrace.xz
Region of Interest Statistics

CPU 0 cumulative IPC: 2.82 instructions: 500000003 cycles: 177311977
CPU 0 Branch Prediction Accuracy: 97.86% MPKI: 3.208 Average ROB Occupancy at Mispredict: 75.75
Branch type MPKI
BRANCH_DIRECT_JUMP: 0.0578
BRANCH_INDIRECT: 0.296
BRANCH_CONDITIONAL: 2.68
BRANCH_DIRECT_CALL: 0.0136
BRANCH_INDIRECT_CALL: 0.154
BRANCH_RETURN: 0.0117

LLC TOTAL        ACCESS:     354007 HIT:     106480 MISS:     247527
LLC LOAD         ACCESS:     284719 HIT:      62878 MISS:     221841
LLC RFO          ACCESS:      16401 HIT:       4924 MISS:      11477
LLC PREFETCH     ACCESS:          0 HIT:          0 MISS:          0
LLC WRITE        ACCESS:      35663 HIT:      35515 MISS:        148
LLC TRANSLATION  ACCESS:      17224 HIT:       3163 MISS:      14061
LLC PREFETCH REQUESTED:          0 ISSUED:          0 USEFUL:          0 USELESS:          0
LLC AVERAGE MISS LATENCY: 202.6 cycles
cpu0_DTLB TOTAL        ACCESS:  115747384 HIT:  114929128 MISS:     818256
cpu0_DTLB LOAD         ACCESS:  115747384 HIT:  114929128 MISS:     818256
cpu0_DTLB RFO          ACCESS:          0 HIT:          0 MISS:          0
cpu0_DTLB PREFETCH     ACCESS:          0 HIT:          0 MISS:          0
cpu0_DTLB WRITE        ACCESS:          0 HIT:          0 MISS:          0
cpu0_DTLB TRANSLATION  ACCESS:          0 HIT:          0 MISS:          0
cpu0_DTLB PREFETCH REQUESTED:          0 ISSUED:          0 USEFUL:          0 USELESS:          0
cpu0_DTLB AVERAGE MISS LATENCY: 8.964 cycles
cpu0_ITLB TOTAL        ACCESS:    6544003 HIT:    6364667 MISS:     179336
cpu0_ITLB LOAD         ACCESS:    6544003 HIT:    6364667 MISS:     179336
cpu0_ITLB RFO          ACCESS:          0 HIT:          0 MISS:          0
cpu0_ITLB PREFETCH     ACCESS:          0 HIT:          0 MISS:          0
cpu0_ITLB WRITE        ACCESS:          0 HIT:          0 MISS:          0
cpu0_ITLB TRANSLATION  ACCESS:          0 HIT:          0 MISS:          0
cpu0_ITLB PREFETCH REQUESTED:          0 ISSUED:          0 USEFUL:          0 USELESS:          0
cpu0_ITLB AVERAGE MISS LATENCY: 2.19 cycles
cpu0_L1D TOTAL        ACCESS:  166098865 HIT:  164959903 MISS:    1138962
cpu0_L1D LOAD         ACCESS:   63393791 HIT:   62438428 MISS:     955363
cpu0_L1D RFO          ACCESS:          0 HIT:          0 MISS:          0
cpu0_L1D PREFETCH     ACCESS:          0 HIT:          0 MISS:          0
cpu0_L1D WRITE        ACCESS:  102678257 HIT:  102519208 MISS:     159049
cpu0_L1D TRANSLATION  ACCESS:      26817 HIT:       2267 MISS:      24550
cpu0_L1D PREFETCH REQUESTED:          0 ISSUED:          0 USEFUL:          0 USELESS:          0
cpu0_L1D AVERAGE MISS LATENCY: 48.6 cycles
cpu0_L1I TOTAL        ACCESS:    7312460 HIT:    6175944 MISS:    1136516
cpu0_L1I LOAD         ACCESS:    7312460 HIT:    6175944 MISS:    1136516
cpu0_L1I RFO          ACCESS:          0 HIT:          0 MISS:          0
cpu0_L1I PREFETCH     ACCESS:          0 HIT:          0 MISS:          0
cpu0_L1I WRITE        ACCESS:          0 HIT:          0 MISS:          0
cpu0_L1I TRANSLATION  ACCESS:          0 HIT:          0 MISS:          0
cpu0_L1I PREFETCH REQUESTED:          0 ISSUED:          0 USEFUL:          0 USELESS:          0
cpu0_L1I AVERAGE MISS LATENCY: 9.408 cycles
cpu0_L2C TOTAL        ACCESS:    1563746 HIT:    1245085 MISS:     318661
cpu0_L2C LOAD         ACCESS:    1387134 HIT:    1102415 MISS:     284719
cpu0_L2C RFO          ACCESS:      48855 HIT:      32454 MISS:      16401
cpu0_L2C PREFETCH     ACCESS:          0 HIT:          0 MISS:          0
cpu0_L2C WRITE        ACCESS:     103271 HIT:     102954 MISS:        317
cpu0_L2C TRANSLATION  ACCESS:      24486 HIT:       7262 MISS:      17224
cpu0_L2C PREFETCH REQUESTED:          0 ISSUED:          0 USEFUL:          0 USELESS:          0
cpu0_L2C AVERAGE MISS LATENCY: 178.2 cycles
cpu0_STLB TOTAL        ACCESS:     626565 HIT:     603074 MISS:      23491
cpu0_STLB LOAD         ACCESS:     626565 HIT:     603074 MISS:      23491
cpu0_STLB RFO          ACCESS:          0 HIT:          0 MISS:          0
cpu0_STLB PREFETCH     ACCESS:          0 HIT:          0 MISS:          0
cpu0_STLB WRITE        ACCESS:          0 HIT:          0 MISS:          0
cpu0_STLB TRANSLATION  ACCESS:          0 HIT:          0 MISS:          0
cpu0_STLB PREFETCH REQUESTED:          0 ISSUED:          0 USEFUL:          0 USELESS:          0
cpu0_STLB AVERAGE MISS LATENCY: 166.2 cycles

DRAM Statistics

Channel 0 RQ ROW_BUFFER_HIT:      58187
  ROW_BUFFER_MISS:     189183
 AVG DBUS CONGESTED CYCLE: 3.812
WQ ROW_BUFFER_HIT: Channel 0 
  ROW_BUFFER_MISS:      11078
  FULL:      14205
